42
1005.log
C          2.55645       -2.14521        0.08414
P          1.36051       -0.87101        0.65716
C          1.14342       -1.36013        2.41120
O          2.33592        0.39733        1.00015
C          2.79214        1.27113       -0.00120
C          4.19424        0.96559       -0.44704
O          4.83915        1.64229       -1.19544
Rh        -0.35571       -0.57723       -0.79608
Cl        -0.78740       -2.66518        0.27272
C         -3.17564       -0.30739        1.36415
P         -1.67390        0.55470        0.75747
C         -1.04520        1.06847        2.41319
O         -2.49570        1.89570        0.27764
C         -2.02458        2.82643       -0.65285
C         -0.62467        3.29773       -0.38328
O          0.10307        2.78740        0.41586
C         -1.40306       -1.18907       -2.68383
C         -2.34862       -0.68593       -1.81462
H          3.36961       -2.22479        0.80568
H          2.03331       -3.09466        0.00313
H          2.95027       -1.87273       -0.89430
H          1.85415       -2.15295        2.63478
H          0.14114       -1.73949        2.58231
H          1.34602       -0.49850        3.04084
H          2.74572        2.29232        0.39438
H          2.12758        1.23076       -0.88082
H          4.59713        0.03205       -0.00878
H          0.61901       -1.22381       -1.74542
H          0.05571        0.71801       -1.46097
H         -3.59466        0.24322        2.20422
H         -3.92052       -0.37536        0.57592
H         -2.89540       -1.31104        1.67697
H         -0.01324        1.40052        2.36164
H         -1.67644        1.88387        2.76436
H         -1.13014        0.22554        3.09428
H         -2.71723        3.67549       -0.63770
H         -2.01487        2.41037       -1.67418
H         -0.30883        4.14407       -1.01910
H         -1.06486       -0.60410       -3.53263
H         -1.29559       -2.26327       -2.78841
H         -2.96363       -1.38475       -1.25853
H         -2.79700        0.28583       -1.99465
