42
1014.log
C          1.51788        1.27234        2.63789
C          2.39659        0.97164        1.43222
C          3.11142       -0.35612        1.52059
O          3.39652       -0.98367        0.52935
O          3.45017       -0.72164        2.74547
P          1.48203        0.88738       -0.19505
C          0.72993        2.56663       -0.23725
Br         3.13196        1.35280       -1.56357
Rh         0.32998       -1.00811       -0.74025
Cl         0.55422       -1.81233        1.51799
C         -2.44621        1.41693       -2.00203
C         -3.01986        0.18646       -1.31423
C         -4.35534        0.43007       -0.66966
O         -5.13722       -0.44313       -0.38981
O         -4.58269        1.71526       -0.40270
P         -1.80270       -0.48754       -0.04175
C         -2.76813       -1.82831        0.74569
Br        -2.05463        1.02794        1.52814
C          0.99017       -2.99774       -1.53554
C         -0.40548       -2.93510       -1.33211
H          1.02738        2.23781        2.54015
H          0.75946        0.50239        2.75811
H          2.13255        1.27999        3.53499
H          3.16883        1.74903        1.32966
H          3.85603       -1.60297        2.73739
H          1.48057        3.31392        0.02464
H         -0.10892        2.63836        0.45004
H          0.37810        2.76089       -1.25079
H          1.69306       -1.51454       -1.15214
H          0.14395       -0.48532       -2.15197
H         -3.10034        1.73902       -2.80936
H         -1.46737        1.18331       -2.42130
H         -2.34777        2.24020       -1.29607
H         -3.13209       -0.64218       -2.02405
H         -5.42673        1.82689        0.06237
H         -3.70319       -1.46097        1.16880
H         -2.15070       -2.26346        1.53414
H         -2.99517       -2.58996        0.00037
H          1.37532       -2.99930       -2.54985
H          1.59091       -3.55726       -0.82543
H         -0.80798       -3.48861       -0.48912
H         -1.05321       -2.91167       -2.20501
