40
1015.log
C          2.47814       -0.42058       -2.58236
N          2.14472       -1.28500       -1.45621
P          1.84664       -0.62143        0.06422
C          3.50558       -0.27121        0.80379
C          1.54228       -2.25000        0.90324
F          1.33186       -2.03648        2.23847
Rh         0.29076        1.00711        0.42751
Cl        -0.29448        1.36283       -1.87966
C         -2.16620       -2.51827       -1.35437
N         -1.13828       -1.63926       -0.80984
P         -1.45482       -0.43290        0.31204
C         -2.05914       -1.36602        1.76398
C         -3.07072        0.35365       -0.21166
F         -4.08201       -0.57795       -0.19786
C          0.44788        3.21153        0.68177
C         -0.87369        2.69450        0.89493
H          2.35328       -0.98481       -3.50683
H          3.50087       -0.03409       -2.54125
H          1.78220        0.41708       -2.59109
H          2.77478       -2.08334       -1.40977
H          3.38154       -0.11448        1.87312
H          3.91424        0.63694        0.36139
H          4.18957       -1.10290        0.62788
H          2.41206       -2.91445        0.81994
H          0.64781       -2.72875        0.49218
H          1.41644        2.05633        0.36902
H          0.52594        0.77979        1.90538
H         -2.78708       -2.90120       -0.54739
H         -1.67357       -3.35998       -1.84358
H         -2.81438       -2.02430       -2.08258
H         -0.55292       -1.25525       -1.55096
H         -1.24922       -1.97579        2.15603
H         -2.91366       -1.99029        1.51091
H         -2.35191       -0.64636        2.52674
H         -2.98452        0.74191       -1.23158
H         -3.35903        1.15157        0.47862
H          0.98035        3.60760        1.54202
H          0.61311        3.78206       -0.22839
H         -1.61313        2.93397        0.13569
H         -1.26644        2.73388        1.90812
