26
1017.log
C          3.05333       -1.52404       -0.94985
P          1.71495       -0.39436       -0.42551
F          2.04430        0.80769       -1.45514
C          2.53007        0.30258        1.00337
N          3.06927        0.67255        1.94085
Rh        -0.46505       -0.95332       -0.24278
Cl        -0.51265        0.09143        1.93522
C         -2.65666        1.90321        0.23718
P         -1.11828        1.19664       -0.44322
F         -1.23861        1.90427       -1.91450
C          0.09306        2.33484        0.19259
N          0.89902        3.04228        0.59208
C         -1.56597       -2.76592        0.45534
C         -2.41365       -1.68366        0.04480
H          3.16698       -2.31767       -0.21423
H          3.98420       -0.96514       -1.04415
H          2.78302       -1.95939       -1.91087
H         -0.12127       -2.39620        0.19352
H         -0.50847       -1.39416       -1.69362
H         -2.64220        2.97865        0.05979
H         -3.50187        1.45852       -0.28718
H         -2.72525        1.69526        1.30079
H         -1.57598       -3.66875       -0.14791
H         -1.49304       -2.95816        1.52245
H         -2.94198       -1.15254        0.83237
H         -3.00229       -1.82308       -0.85815
