48
1018.log
C          4.80029        1.99983       -0.24193
O          3.75118        1.16865        0.19289
C          2.63585        1.10840       -0.67393
C          2.88837        0.38993       -1.99075
P          1.40888        0.14590        0.35559
C          1.35268        1.17211        1.86773
C          2.55421       -1.19004        0.94269
O          2.96763       -2.05428        0.21858
Rh        -0.36433       -1.02439       -0.48028
Cl         0.16250       -1.97975        1.70229
C         -0.41700        3.67234       -0.53938
O         -0.79669        2.32402       -0.40164
C         -1.82115        2.07807        0.53656
C         -3.10102        2.87880        0.31769
P         -2.04203        0.22784        0.38138
C         -2.73009       -0.20571        2.02609
C         -3.57629        0.01589       -0.61389
O         -3.96280        0.69962       -1.51804
C         -0.32174       -3.03599       -1.41417
C         -1.64245       -2.61519       -1.06065
H          5.31195        1.58491       -1.11569
H          4.43033        3.00345       -0.48619
H          5.50489        2.06417        0.58583
H          2.24866        2.12308       -0.86417
H          1.93763        0.27634       -2.50989
H          3.30668       -0.59624       -1.79380
H          3.57233        0.94882       -2.62683
H          0.93208        2.14778        1.63919
H          0.73863        0.66615        2.61185
H          2.37073        1.28781        2.23933
H          2.86101       -1.11150        2.00190
H          0.70909       -1.90464       -1.11868
H         -0.53771       -0.32813       -1.80683
H          0.45831        3.67692       -1.18637
H         -0.15740        4.11726        0.43047
H         -1.20352        4.27167       -1.00735
H         -1.44659        2.27472        1.56194
H         -2.95427        3.92248        0.59045
H         -3.89713        2.47405        0.93981
H         -3.40878        2.81842       -0.72289
H         -1.92657       -0.16858        2.75967
H         -3.09998       -1.22930        1.98972
H         -3.53303        0.47268        2.31324
H         -4.11033       -0.92038       -0.33356
H         -0.08750       -3.12949       -2.47054
H          0.14377       -3.80059       -0.79754
H         -2.10306       -3.10145       -0.20328
H         -2.33522       -2.40768       -1.87162
