42
1020.log
C          5.00723       -2.02852        0.52514
C          3.86765       -1.15733        0.01152
C          2.92220       -0.76773        1.14260
P          1.44397        0.18308        0.58308
C          0.86918        0.84247        2.19809
Br         2.45054        1.99675       -0.16202
Rh        -0.02102       -0.93922       -0.77614
Cl        -0.31960       -2.14735        1.27780
C         -4.58797       -1.38242        2.19706
C         -3.66961       -1.22328        0.99188
C         -2.95898        0.12548        1.02824
P         -1.84565        0.36995       -0.42393
C         -3.06001        0.53665       -1.79192
Br        -1.45515        2.52186       -0.13900
C          0.16142       -2.88956       -1.85400
C         -1.15815       -2.34756       -1.87578
H          5.58380       -1.49684        1.27901
H          4.62079       -2.94355        0.96972
H          5.67472       -2.29679       -0.28989
H          4.28003       -0.25600       -0.45011
H          3.31629       -1.70333       -0.76129
H          3.45525       -0.16395        1.88507
H          2.53179       -1.66226        1.63834
H          0.41591        0.02651        2.75904
H          0.13908        1.63909        2.05260
H          1.72099        1.24371        2.74908
H          1.11968       -1.89523       -1.13146
H          0.28132       -0.14104       -2.03332
H         -4.01457       -1.33368        3.11991
H         -5.09536       -2.34328        2.16054
H         -5.34038       -0.59580        2.21577
H         -2.92365       -2.02018        1.00278
H         -4.25784       -1.31367        0.07457
H         -2.34414        0.18547        1.93271
H         -3.68602        0.94589        1.04968
H         -2.54701        0.93404       -2.66836
H         -3.86905        1.21075       -1.50683
H         -3.46650       -0.44178       -2.04107
H          0.71352       -2.92197       -2.78848
H          0.34279       -3.74378       -1.20781
H         -1.90704       -2.84297       -1.26288
H         -1.53631       -1.99540       -2.83202
