40
1025.log
C         -4.79892        1.28756       -1.20255
N         -3.89406        0.75849       -0.20103
C         -2.58386        0.45887       -0.72477
P         -1.63353       -0.55482        0.49855
C         -2.90159       -1.81556        0.90320
Cl        -1.79373        0.59490        2.11437
Rh         0.45375       -1.26727       -0.06236
Cl         0.17681       -0.14999       -2.16598
C          0.98914        3.83675       -1.42397
N          1.45048        2.54631       -0.96401
C          0.98115        2.22085        0.35763
P          1.58605        0.52420        0.79019
C          1.72603        0.66333        2.61768
Cl         3.47360        0.70250        0.28326
C          1.14953       -3.06525       -1.21594
C          2.19807       -2.18528       -0.79987
H         -4.95359        0.52882       -1.96996
H         -5.75508        1.50662       -0.73063
H         -4.42538        2.19934       -1.68919
H         -3.81405        1.41793        0.56874
H         -1.98683        1.33767       -1.01940
H         -2.68264       -0.17301       -1.61364
H         -2.99883       -2.49086        0.05511
H         -3.85436       -1.32555        1.09874
H         -2.57258       -2.38096        1.77359
H         -0.17670       -2.52435       -0.69767
H          0.59627       -1.99703        1.26154
H          1.38987        4.61219       -0.76761
H         -0.10843        3.92936       -1.43589
H          1.36375        4.00285       -2.43148
H          1.15084        1.81919       -1.61762
H         -0.12155        2.24093        0.46585
H          1.40586        2.93750        1.07501
H          0.73676        0.75692        3.05797
H          2.19657       -0.24326        2.99362
H          2.33673        1.52654        2.87833
H          1.09462       -4.04525       -0.75049
H          0.89576       -3.07080       -2.27258
H          2.67394       -1.58325       -1.56960
H          2.88708       -2.54230       -0.03873
