48
1027.log
C          0.50494        1.21511       -2.59860
P         -0.52219        0.06019       -1.61838
C         -1.47462       -0.74839       -2.96435
C         -1.84615        1.22994       -1.05366
O         -2.84873        0.40271       -0.51464
C         -3.99028        1.09780       -0.08670
C         -4.93712        0.13270        0.58076
O         -5.99931        0.42708        1.04555
Rh         0.52545       -1.44021       -0.23562
Cl         2.62931       -0.35719       -0.60192
C         -1.25880       -0.00332        2.48530
P          0.38270       -0.33721        1.74713
C          1.25678       -1.02941        3.20600
C          1.15336        1.34329        1.79529
O          0.57542        2.10921        0.76341
C          1.25354        3.31929        0.52521
C          2.60308        3.15653       -0.15261
O          3.33076        4.08096       -0.38680
C          1.52589       -3.36106       -0.77155
C          1.56681       -3.06108        0.62643
H          0.97413        1.93551       -1.93500
H          1.29272        0.64473       -3.08770
H         -0.10256        1.72825       -3.34373
H         -2.22709       -1.39394       -2.51714
H         -1.95634       -0.00673       -3.60070
H         -0.79730       -1.35622       -3.56273
H         -1.45503        1.92904       -0.30334
H         -2.22944        1.80379       -1.91403
H         -4.50608        1.57873       -0.93512
H         -3.73172        1.89766        0.62805
H         -4.53982       -0.89750        0.59969
H          0.74099       -2.25277       -1.51866
H         -0.79717       -2.13774        0.01606
H         -1.71694       -0.95849        2.73492
H         -1.88472        0.49167        1.75040
H         -1.16884        0.60923        3.38140
H          2.31565       -1.13259        2.97599
H          0.84857       -2.01100        3.43736
H          1.13314       -0.37145        4.06590
H          0.98099        1.82298        2.77472
H          2.23352        1.21803        1.64531
H          1.38851        3.88522        1.46089
H          0.60874        3.91333       -0.13278
H          2.85246        2.11620       -0.42864
H          0.91304       -4.19801       -1.09430
H          2.45453       -3.26272       -1.32735
H          2.53130       -2.77236        1.03445
H          0.98390       -3.69396        1.29088
