46
1048.log
C          3.97185       -0.09951        0.57103
C          2.89496        0.96317        0.73364
N          2.24304        0.87398        2.06720
P          1.45165        0.86777       -0.47994
C          2.26022        1.46815       -1.99371
C          0.55087        2.51657        0.12898
O          0.11540        3.16502       -0.78371
O          0.61558        2.67823        1.36720
Rh         0.43188       -1.15567       -0.65569
Cl         1.02751       -1.74551        1.64716
C         -2.02494       -0.69429        2.64530
C         -2.19384        0.41031        1.61231
N         -3.59687        0.74887        1.50370
P         -1.65475       -0.18772       -0.09235
C         -3.24673       -0.92132       -0.68198
C         -1.91243        1.41890       -0.99765
O         -2.58168        2.33291       -0.60108
O         -1.31291        1.37360       -2.20715
C          0.01792       -3.21200       -1.68017
C         -0.61662       -3.23638       -0.47132
H          4.14196       -0.30389       -0.48292
H          3.65079       -1.02605        1.03958
H          4.91294        0.21753        1.01756
H          3.33624        1.96449        0.63387
H          2.90694        0.99935        2.83196
H          1.80689       -0.10768        2.09702
H          1.47734        1.77283       -2.69173
H          2.89805        2.32786       -1.78517
H          2.83899        0.68139       -2.46319
H          1.46156        1.60479        1.99616
H          1.80992       -1.62975       -1.03611
H          0.23177       -0.78896       -2.08168
H         -0.98945       -1.01313        2.72757
H         -2.35235       -0.34252        3.62363
H         -2.63779       -1.54828        2.36465
H         -1.53990        1.27034        1.85559
H         -4.02727        0.79545        2.42109
H         -3.71253        1.64809        1.04817
H         -3.75015       -1.38414        0.16535
H         -3.89212       -0.14564       -1.08744
H         -3.04607       -1.66445       -1.45175
H         -1.36591        2.25466       -2.62163
H         -0.55714       -3.01124       -2.57812
H          0.97036       -3.70031       -1.83472
H         -0.16520       -3.74677        0.37178
H         -1.68563       -3.08587       -0.38790
