46
1049.log
C          1.43075       -1.75828        2.62397
C          2.39576       -1.25224        1.56178
P          1.51237       -0.51594        0.11739
C          0.99808       -2.00182       -0.82156
C          2.97446       -0.04173       -0.93965
O          3.84892       -1.14547       -1.17197
C          4.86911       -1.26007       -0.42451
N          5.80140       -1.40116        0.22479
Rh         0.13264        1.30202        0.35313
Cl         0.19185        1.28139       -2.04888
C         -3.54604       -1.54506        1.87388
C         -2.13950       -1.23190        1.37499
P         -1.90098        0.26911        0.30827
C         -3.40447        1.25520        0.65886
C         -2.37582       -0.34729       -1.38540
O         -3.54238       -1.17193       -1.34351
C         -3.34676       -2.42673       -1.32848
N         -3.20063       -3.56210       -1.30939
C          0.65064        3.48243        0.30468
C         -0.75330        3.22392        0.33094
H          1.98158       -2.14723        3.47742
H          0.79470       -0.94315        2.96482
H          0.80121       -2.55390        2.23093
H          3.03040       -0.46698        1.98516
H          3.03880       -2.06726        1.21718
H          0.67399       -1.68139       -1.81147
H          1.84383       -2.68255       -0.92119
H          0.17749       -2.51106       -0.31956
H          2.59033        0.26889       -1.91696
H          3.51455        0.79437       -0.47964
H          1.42280        2.13199        0.39603
H          0.12194        1.27885        1.86821
H         -4.24854       -1.70357        1.06047
H         -3.51244       -2.46130        2.46054
H         -3.92070       -0.75019        2.51333
H         -1.48364       -1.07530        2.23567
H         -1.74377       -2.08819        0.81927
H         -3.40912        2.13075        0.01128
H         -4.29880        0.66166        0.47481
H         -3.38076        1.58560        1.69594
H         -2.61496        0.51978       -2.00833
H         -1.53665       -0.87638       -1.84404
H          1.10084        3.93885        1.18123
H          1.07801        3.82137       -0.63488
H         -1.29892        3.40667       -0.59118
H         -1.29848        3.50094        1.22903
