38
105.log
C          1.59398        2.34672       -1.56669
O          2.17864        1.56033       -0.54377
P          1.89094       -0.02919       -0.43931
C          3.11053       -0.72825       -1.62589
C          2.76966       -0.28461        1.15740
Cl         4.39440        0.40564        1.10115
Rh        -0.23166       -0.84253       -0.57426
Cl        -0.04496       -1.52188        1.71177
C         -2.41062        2.15311       -1.59414
O         -1.78909        2.21599       -0.32041
P         -1.24279        0.91018        0.46421
C         -0.29997        1.84363        1.72003
C         -2.70366        0.48578        1.53895
Cl        -4.10981        0.20559        0.50280
C         -0.97681       -2.88295       -1.13663
C         -2.01358       -1.97342       -0.76651
H          2.13265        2.22144       -2.50824
H          0.54458        2.07548       -1.71278
H          1.66376        3.38561       -1.24412
H          3.23994       -1.78993       -1.42608
H          2.72459       -0.60761       -2.63753
H          4.06209       -0.20811       -1.52597
H          2.84745       -1.35497        1.35288
H          2.22383        0.18930        1.97309
H          0.38987       -2.14310       -1.10615
H         -0.37607       -0.33790       -1.99947
H         -2.12485        3.05518       -2.13716
H         -2.08098        1.26873       -2.14871
H         -3.49528        2.12194       -1.48423
H         -0.13039        1.20029        2.58028
H         -0.88588        2.71578        2.00609
H          0.65435        2.16598        1.31096
H         -2.94103        1.32735        2.19277
H         -2.51335       -0.41456        2.12089
H         -0.92242       -3.20000       -2.17404
H         -0.72464       -3.66505       -0.42605
H         -2.49284       -2.14996        0.19140
H         -2.70008       -1.64626       -1.54282
