36
1054.log
C         -0.81367       -1.99388        1.03475
P         -1.24453       -0.68412       -0.16442
C         -1.64521       -1.67456       -1.64121
C         -2.95165       -0.23839        0.46237
Br        -4.06721       -1.75702        0.93287
Br        -3.90543        0.77748       -0.88449
Rh        -0.01126        1.22060       -0.38213
Cl        -0.69340        1.67145        1.88501
C          2.99212        2.02857        1.24504
P          1.95372        0.65534        0.62443
C          2.05422       -0.45397        2.07230
C          3.16696       -0.16911       -0.53471
Br         4.92506       -0.53665        0.21757
Br         2.37466       -1.82961       -1.13158
C         -0.66013        3.27112       -1.05545
C          0.68762        3.23331       -0.62656
H          0.13500       -2.43254        0.73081
H         -1.57035       -2.77821        1.03691
H         -0.72316       -1.56131        2.03117
H         -2.01424       -1.02646       -2.43613
H         -2.38278       -2.44430       -1.40863
H         -0.72350       -2.14793       -1.97900
H         -2.86654        0.39316        1.35001
H         -1.27685        1.75186       -1.02666
H          0.46474        0.85863       -1.77378
H          2.40067        2.57147        1.98270
H          3.26133        2.70738        0.43623
H          3.89480        1.64932        1.72497
H          3.05139       -0.40317        2.51191
H          1.32242       -0.09894        2.79816
H          1.82421       -1.48461        1.80762
H          3.32092        0.44034       -1.42706
H         -0.87007        3.41202       -2.11064
H         -1.39725        3.71397       -0.39216
H          0.91293        3.69383        0.33062
H          1.46299        3.35974       -1.37781
