48
1055.log
C         -4.86561        0.11437       -0.40075
C         -3.39938        0.51194       -0.38063
O         -2.78618        0.21996        0.84503
P         -1.70125       -0.97372        1.10229
C         -1.77940       -0.85080        2.92416
C         -2.75612       -2.46068        0.83412
N         -3.26995        1.97860       -0.61048
O         -2.38912        2.55868       -0.01955
O         -4.02289        2.48529       -1.40660
Rh         0.30966       -1.15835       -0.00571
Cl        -0.93076       -0.54556       -1.96251
C          4.68298        1.01215        1.74142
C          3.57582        0.52352        0.82063
O          2.49486        1.36599        0.87514
P          0.97061        1.02587        0.32728
C          0.18022        1.93967        1.69908
C          0.76857        2.24447       -1.01476
N          4.10068        0.48002       -0.59691
O          3.39228        0.94352       -1.45028
O          5.17400       -0.04313       -0.76808
C          1.09824       -2.84171       -1.26235
C          1.94291       -1.69864       -1.27543
H         -5.35533        0.59799       -1.24167
H         -5.34593        0.42725        0.52431
H         -4.96023       -0.96164       -0.50635
H         -2.83317        0.04893       -1.22049
H         -1.41950        0.12090        3.24663
H         -2.80771       -0.98204        3.25372
H         -1.14675       -1.62671        3.34692
H         -2.89528       -2.61791       -0.23512
H         -2.24847       -3.32719        1.25114
H         -3.72173       -2.32705        1.32021
H         -0.11222       -2.60764       -0.20600
H          1.05924       -1.58572        1.24487
H          5.58974        0.44180        1.55937
H          4.37681        0.88748        2.77563
H          4.87211        2.06698        1.55656
H          3.29550       -0.51789        1.05403
H          0.62451        2.93256        1.74045
H         -0.88692        2.02541        1.52555
H          0.37450        1.41932        2.63430
H         -0.28372        2.51680       -1.04990
H          1.37268        3.11850       -0.78118
H          1.07149        1.82939       -1.97169
H          1.46786       -3.74282       -0.78273
H          0.47679       -3.02878       -2.13299
H          1.95322       -1.08615       -2.17307
H          2.92254       -1.82224       -0.82294
