40
1063.log
C          3.97333       -0.12802        1.31456
O          3.81325        1.11298        0.66319
C          2.48660        1.51874        0.55089
P          1.57683        0.70534       -0.87890
C          2.98324        0.29727       -1.97921
O          1.05262        2.07518       -1.55889
Rh        -0.05390       -0.83856       -0.59836
Cl         0.94315       -1.62485        1.45816
C         -4.95254        1.00353       -0.59442
O         -3.55504        0.92722       -0.46599
C         -3.13362        0.63564        0.84083
P         -1.27983        0.62489        0.76988
C         -1.08367        2.45118        0.67602
O         -0.96517        0.36705        2.30965
C         -0.94856       -2.87865       -0.85562
C         -1.84151       -2.09788       -0.15435
H          3.61427       -0.07727        2.34799
H          5.03889       -0.34820        1.30457
H          3.42475       -0.92168        0.79916
H          2.50464        2.58536        0.30081
H          1.93513        1.36410        1.49004
H          3.51582       -0.57578       -1.61498
H          2.58417        0.08495       -2.97035
H          3.65421        1.15461       -2.01491
H          0.29417        1.91292       -2.12767
H          0.86743       -1.69503       -1.42859
H         -0.68328       -0.37439       -1.89367
H         -5.16042        1.22446       -1.63957
H         -5.42926        0.05445       -0.31908
H         -5.36531        1.79932        0.03811
H         -3.53014       -0.32882        1.19214
H         -3.45832        1.41043        1.55484
H         -0.03610        2.73254        0.61058
H         -1.61383        2.81771       -0.19947
H         -1.51666        2.87635        1.58089
H         -0.27721       -0.35293        2.36384
H         -1.11719       -3.08973       -1.90552
H         -0.33045       -3.59923       -0.32999
H         -1.93391       -2.22763        0.92016
H         -2.70912       -1.69254       -0.66226
