40
1074.log
C          3.16926        0.02494        1.32327
P          2.40760       -0.41781       -0.29110
C          3.71549       -1.54130       -0.90768
N          2.80493        0.94312       -1.25996
C          1.88055        1.94723       -1.50929
Br         1.50086        3.15948        0.07932
Rh         0.31232       -1.30915       -0.49556
Cl         1.06981       -2.63929        1.34004
C         -2.16011       -1.07175        1.97551
P         -0.82822       -0.14378        1.11018
C          0.03895        0.51003        2.57922
N         -1.57606        1.32421        0.65441
C         -2.28772        1.47317       -0.52543
Br        -4.16565        0.66653       -0.49165
C         -0.32190       -3.15255       -1.60479
C         -1.35648       -2.58224       -0.80886
H          2.72065        0.92428        1.73706
H          3.01762       -0.80419        2.00983
H          4.23785        0.18719        1.17683
H          4.70219       -1.09364       -0.79046
H          3.66337       -2.46127       -0.32748
H          3.53877       -1.76775       -1.95794
H          3.75775        1.27241       -1.13482
H          2.20817        2.64182       -2.28071
H          0.90311        1.52019       -1.72746
H          0.96400       -2.23806       -1.52243
H         -0.12073       -0.43087       -1.65105
H         -2.62667       -0.43024        2.72376
H         -1.70356       -1.93076        2.46355
H         -2.91728       -1.41758        1.27550
H         -0.68996        0.81622        3.32926
H          0.66518       -0.27840        2.98958
H          0.64795        1.36603        2.29989
H         -1.92003        1.87971        1.43056
H         -1.80579        0.93239       -1.33911
H         -2.47162        2.51590       -0.77836
H         -0.42094       -3.10792       -2.68538
H          0.14219       -4.06610       -1.24408
H         -1.62329       -3.11864        0.09678
H         -2.20376       -2.13415       -1.32132
