46
1076.log
C          4.00728       -0.62412       -0.35482
C          3.22489        0.24336       -1.33160
P          1.52224        0.66221       -0.73791
C          1.11953        1.99423       -1.92895
C          1.99753        1.67885        0.74629
O          0.91555        2.54999        0.93511
O          0.96185        3.16898        2.21895
Rh         0.11207       -1.10854       -0.39489
Cl         1.25097       -1.45703        1.69398
C         -3.88745       -0.95648       -0.55626
C         -3.22164       -0.79896        0.80325
P         -1.55946        0.00647        0.69965
C         -1.31107        0.43134        2.46014
C         -2.07141        1.68679        0.09338
O         -2.20431        1.55068       -1.28725
O         -2.32263        2.85128       -1.89712
C          0.41376       -3.28479       -0.77568
C         -0.82103       -2.98423       -0.11998
H          4.91662       -0.99886       -0.82139
H          4.28237       -0.05755        0.53145
H          3.40854       -1.47203       -0.02858
H          3.09244       -0.28461       -2.28172
H          3.76414        1.17444       -1.53481
H          1.01704        1.54351       -2.91460
H          0.17535        2.45527       -1.65610
H          1.90472        2.74899       -1.94581
H          2.12472        1.00334        1.60062
H          2.93043        2.23496        0.56012
H          1.23546        4.08060        2.04189
H          1.16328       -1.96904       -1.10045
H         -0.58400       -0.89607       -1.72473
H         -4.16836        0.01267       -0.95858
H         -3.20105       -1.41951       -1.26154
H         -4.78174       -1.57235       -0.47653
H         -3.07151       -1.77735        1.26791
H         -3.85024       -0.20029        1.47016
H         -1.09924       -0.48372        3.01008
H         -0.45274        1.09169        2.55695
H         -2.19760        0.91815        2.86505
H         -3.01673        2.00130        0.56191
H         -1.28136        2.40306        0.34598
H         -2.50234        2.62152       -2.81766
H          0.36856       -3.66221       -1.79365
H          1.19522       -3.74347       -0.17616
H         -0.89266       -3.25051        0.93139
H         -1.73643       -3.16184       -0.67675
