32
1094.log
C          2.32933        0.51765        1.95602
P          1.59391        0.63270        0.28301
N          1.36189        2.26648        0.13851
N          3.19830        0.39845       -0.56260
O          3.81335        1.40804       -0.82437
O          3.57106       -0.73394       -0.73779
Rh         0.01766       -0.83469       -0.38944
Cl        -0.54939       -1.41910        1.88881
C         -1.54518        1.64712        1.69740
P         -1.71501        0.45169        0.32384
N         -3.24819       -0.12376        0.63685
N         -2.20362        1.66275       -0.92465
O         -3.23506        1.50697       -1.53152
O         -1.37226        2.52489       -1.14545
C          0.03611       -2.94979       -1.07766
C         -1.26355       -2.35869       -1.08455
H          2.76211       -0.47135        2.10205
H          1.52510        0.65546        2.67762
H          3.08439        1.29287        2.08849
H          0.64493        2.53884       -0.53140
H          2.21777        2.80360        0.01656
H          1.12255       -1.86688       -0.63346
H          0.15808       -0.32716       -1.80833
H         -2.46251        2.23408        1.74338
H         -0.68060        2.29109        1.55199
H         -1.43066        1.07846        2.61798
H         -3.23095       -0.85434        1.34124
H         -3.72881       -0.44510       -0.20012
H          0.50002       -3.17724       -2.03195
H          0.25431       -3.67552       -0.29885
H         -1.96252       -2.70262       -0.32495
H         -1.72774       -2.16744       -2.04921
