46
1097.log
C          0.48076        4.01250        0.23064
C         -0.63418        3.16191       -0.36471
P         -0.53478        1.40293        0.22727
C         -0.77386        1.64077        2.02633
C         -2.20942        0.93685       -0.46518
O         -2.25262        0.44524       -1.55937
C         -3.43591        1.26642        0.35373
F         -4.55858        1.32890       -0.42102
Rh         1.26891        0.26248       -0.61734
Cl         2.44765        0.71118        1.41576
C          0.62363       -1.82356        2.85223
C          1.04135       -2.60387        1.61626
P          0.59768       -1.81243        0.00337
C          0.95761       -3.21492       -1.12620
C         -1.24550       -1.82110        0.15618
O         -1.73903       -1.10085        0.99626
C         -2.08568       -2.57860       -0.83840
F         -3.39568       -2.60397       -0.45856
C          3.11712        0.94093       -1.66888
C          3.06996       -0.47089       -1.44366
H          0.53903        4.97215       -0.27926
H          1.44291        3.51071        0.13282
H          0.30761        4.19607        1.28818
H         -0.55300        3.12863       -1.45537
H         -1.61090        3.58316       -0.10712
H          0.21424        1.82469        2.44839
H         -1.17560        0.73271        2.46693
H         -1.42591        2.48854        2.23059
H         -3.33412        2.23157        0.85988
H         -3.57984        0.46747        1.09052
H          1.82320        1.58334       -1.15391
H          0.54185        0.05462       -1.93361
H          1.06977       -0.83207        2.83032
H          0.96930       -2.33950        3.74592
H         -0.45785       -1.72483        2.90695
H          2.13349       -2.68900        1.58779
H          0.61209       -3.61219        1.62249
H          0.49987       -4.14022       -0.77890
H          0.61135       -2.97463       -2.12948
H          2.03850       -3.34916       -1.15741
H         -2.02514       -2.03985       -1.79465
H         -1.75896       -3.61549       -0.96101
H          3.04165        1.29233       -2.69413
H          3.80926        1.51630       -1.06005
H          3.74000       -0.87113       -0.68725
H          2.95899       -1.11163       -2.31483
