42
1099.log
C          3.71768        1.67434        0.29489
C          2.21568        1.38448        0.23188
C          1.58927        1.69839        1.48970
N          1.12199        1.95162        2.50142
P          1.80086       -0.39195       -0.18245
C          2.97444       -1.33710        0.84184
C          2.65172       -0.43922       -1.81827
O          3.50580       -1.23123       -2.10229
Rh        -0.34310       -1.16925       -0.29508
Cl        -0.02820       -1.26237        2.05848
C         -1.13156        1.93110       -2.49831
C         -1.55001        2.24334       -1.06136
C         -0.61852        3.15860       -0.46667
N          0.14829        3.89495       -0.04392
P         -1.65735        0.67891       -0.00724
C         -2.03588        1.34567        1.64083
C         -3.37344        0.28419       -0.56815
O         -4.31203        0.19560        0.17050
C         -1.00687       -3.31318       -0.19986
C         -2.09078       -2.39271       -0.13113
H          4.21473        1.31704       -0.60612
H          4.17206        1.20270        1.16303
H          3.87157        2.74924        0.37528
H          1.74293        2.00120       -0.54519
H          2.81619       -1.07803        1.88865
H          2.76672       -2.39947        0.71217
H          3.99731       -1.12886        0.52829
H          2.25735        0.28285       -2.56517
H          0.33263       -2.53386       -0.45284
H         -0.47085       -1.09862       -1.81407
H         -1.86643        1.28760       -2.97658
H         -1.04037        2.84895       -3.07756
H         -0.17272        1.41239       -2.50435
H         -2.54372        2.71258       -1.03858
H         -1.12772        1.71392        2.11888
H         -2.42982        0.51985        2.23548
H         -2.78400        2.13589        1.56623
H         -3.47748        0.11762       -1.66088
H         -0.92814       -3.94051       -1.08281
H         -0.70923       -3.80177        0.72353
H         -2.56986       -2.25436        0.83439
H         -2.77744       -2.36252       -0.97237
