44
1102.log
C          2.63724        0.08955       -2.87224
C          2.58271        1.06888       -1.71090
P          1.81076        0.26284       -0.23890
N          3.04513       -0.82550        0.09389
C          2.04635        1.59261        1.07049
N          2.76721        0.97841        2.17045
Rh        -0.18724       -0.86340       -0.32235
Cl         0.31659       -1.25673        2.02423
C         -4.05639        0.29526       -1.09667
C         -3.45691        0.45165        0.29399
P         -1.63253        0.80472        0.27213
N         -1.32816        1.43140        1.80421
C         -1.67763        2.39462       -0.71075
N         -0.46238        3.17020       -0.66163
C         -0.48424       -3.05540       -0.58518
C         -1.68657       -2.35925       -0.25148
H          1.62931       -0.20652       -3.15737
H          3.12728        0.53726       -3.73453
H          3.18541       -0.80276       -2.57836
H          3.59243        1.37460       -1.41930
H          2.02014        1.96178       -1.99203
H          3.87655       -0.34437        0.43295
H          2.74908       -1.48394        0.81000
H          2.65825        2.39800        0.64626
H          1.06803        2.00208        1.35865
H          2.18111        0.24516        2.56964
H          2.94678        1.65827        2.90231
H          0.69952       -2.03572       -0.74771
H         -0.46189       -0.57696       -1.77973
H         -3.42240       -0.33776       -1.71360
H         -4.15093        1.26045       -1.58764
H         -5.04551       -0.15544       -1.03657
H         -3.94689        1.27256        0.83034
H         -3.60241       -0.46297        0.87611
H         -0.87340        0.72561        2.38538
H         -2.13668        1.81904        2.27976
H         -2.49923        3.01016       -0.32635
H         -1.88328        2.14136       -1.75413
H          0.31088        2.59784       -0.99126
H         -0.26221        3.42961        0.29998
H         -0.40484       -3.48342       -1.58007
H         -0.02837       -3.67082        0.18615
H         -2.07424       -2.50382        0.75440
H         -2.46184       -2.31411       -1.00987
