40
1103.log
C          2.64975        0.74072       -2.61461
C          2.54609        1.32764       -1.21239
C          3.89140        1.80768       -0.68606
P          1.76765       -0.01683       -0.16405
Cl         3.31857       -1.11019        0.28811
N          1.59933        0.95288        1.35395
O          0.56245        1.58991        1.42713
O          2.52499        1.02122        2.11835
Rh        -0.18761       -1.13699       -0.48401
Cl         0.40595       -1.53874        1.82512
C         -3.22203        0.70275       -2.12031
C         -3.33131        0.73015       -0.60252
C         -4.32981       -0.30059       -0.09342
P         -1.63835        0.50269        0.17891
Cl        -2.09093        0.78150        2.05082
N         -1.12750        2.17832       -0.33419
O         -0.30989        2.22799       -1.22211
O         -1.68425        3.11085        0.17902
C         -0.50724       -3.33333       -0.76944
C         -1.70771       -2.62400       -0.48421
H          3.30696       -0.12834       -2.61817
H          1.66360        0.43905       -2.96420
H          3.05006        1.48093       -3.30317
H          1.82911        2.15376       -1.22748
H          4.20652        2.67814       -1.25822
H          4.65044        1.03625       -0.79678
H          3.84446        2.09616        0.36292
H          0.67891       -2.30002       -0.95783
H         -0.42923       -0.81362       -1.94078
H         -2.54698        1.47243       -2.48930
H         -4.20117        0.86793       -2.56534
H         -2.84859       -0.26252       -2.45680
H         -3.65638        1.72485       -0.26566
H         -4.32571       -0.34398        0.99332
H         -4.10680       -1.28875       -0.48426
H         -5.33112       -0.02568       -0.41993
H         -0.39758       -3.77395       -1.75533
H         -0.06376       -3.92025        0.02955
H         -2.13472       -2.73640        0.50886
H         -2.44023       -2.55737       -1.28273
