46
1106.log
C          1.56086       -3.73530       -0.33839
C          2.38375       -2.49771       -0.65259
P          1.28138       -1.02114       -0.74533
N          0.46778       -1.42318       -2.14867
O          2.34056        0.11738       -1.35730
C          3.20160        0.62668       -0.44741
C          3.84462        1.89688       -0.90390
O          3.39739        0.05962        0.59135
Rh         0.00883       -0.30467        0.99214
Cl         0.84543        1.96511        0.84930
C         -0.91766        3.17661       -1.81378
C         -0.82188        1.65866       -1.87537
P         -1.45519        0.79115       -0.36287
N         -2.50013        1.95970        0.23811
O         -2.56079       -0.14576       -1.22852
C         -3.40041       -0.87631       -0.49119
C         -4.15685       -1.88786       -1.30215
O         -3.50429       -0.71660        0.69571
C          0.23405       -0.33160        3.20270
C         -1.00582        0.22469        2.75546
H          0.81066       -3.89455       -1.10937
H          1.04827       -3.60839        0.61306
H          2.19807       -4.61506       -0.27786
H          3.13650       -2.33129        0.11842
H          2.88563       -2.59300       -1.62090
H         -0.41983       -0.95833       -2.27863
H          1.03150       -1.40579       -2.99010
H          4.79372        2.03515       -0.39512
H          3.97255        1.89281       -1.98253
H          3.17772        2.71396       -0.63072
H          1.06733       -0.82369        1.97365
H         -0.68711       -1.64512        0.99402
H         -0.53239        3.60239       -2.73882
H         -1.94910        3.49403       -1.68903
H         -0.32206        3.55652       -0.98740
H          0.22349        1.37450       -2.01380
H         -1.40826        1.28188       -2.71842
H         -1.94424        2.70401        0.64964
H         -3.09813        1.55867        0.95619
H         -4.98742       -2.27987       -0.72359
H         -3.47829       -2.70070       -1.55537
H         -4.51094       -1.43565       -2.22450
H          0.20575       -1.28642        3.71949
H          0.97700        0.35533        3.60036
H         -1.12806        1.29962        2.87121
H         -1.91501       -0.33954        2.94232
