48
1109.log
C          1.10852        0.34991        3.05416
P          1.55710        0.96112        1.38168
C          2.29056        2.57922        1.83940
C          3.10266        0.00887        1.06174
C          2.82231       -1.47282        0.74876
N          3.35540       -1.90163       -0.52459
C          4.63642       -2.17899       -0.62467
N          5.73682       -2.50150       -0.69525
Rh        -0.01217        1.10025       -0.29074
Cl         1.52312        0.16610       -1.87499
C         -1.17961       -1.86900        1.44766
P         -1.11357       -0.91044       -0.12173
C         -0.61841       -2.23020       -1.28797
C         -2.92584       -0.87783       -0.50244
C         -3.71478        0.01592        0.45330
N         -5.12957        0.06651        0.13298
C         -5.89335       -0.95652        0.45873
N         -6.56132       -1.82353        0.80325
C         -0.32646        2.72898       -1.79419
C         -1.24262        1.64544       -1.93638
H          0.90886       -0.71805        3.02924
H          1.92702        0.54740        3.74527
H          0.21406        0.87080        3.39041
H          2.77421        3.01608        0.96620
H          1.49713        3.24671        2.17328
H          3.02400        2.45574        2.63580
H          3.58372        0.47767        0.19812
H          3.76848        0.12240        1.92151
H          3.23269       -2.11617        1.53181
H          1.73690       -1.62805        0.69916
H          2.93974       -1.38342       -1.30618
H          0.62620        2.46328       -0.56254
H         -0.97211        1.73474        0.69923
H         -0.20697       -2.31466        1.64804
H         -1.91999       -2.66363        1.36179
H         -1.44350       -1.21198        2.27354
H         -0.70650       -1.85709       -2.30721
H          0.42395       -2.49568       -1.12091
H         -1.25114       -3.10715       -1.15468
H         -3.30796       -1.90275       -0.44688
H         -3.04707       -0.52573       -1.53137
H         -3.62426       -0.35908        1.47555
H         -3.32215        1.03622        0.42690
H         -5.37499        0.53559       -0.72876
H         -0.71411        3.68232       -1.44698
H          0.46107        2.82315       -2.53673
H         -1.10681        0.99162       -2.79415
H         -2.28456        1.84808       -1.70388
