44
1123.log
C          4.48055        1.04272        2.04241
C          3.25604        0.37334        1.43575
N          2.78951        1.15546        0.29226
P          1.71228        0.39074       -0.75121
C          1.79404        1.51985       -2.19471
C          3.00926       -0.77331       -1.42094
O          2.86077       -1.94128       -1.62672
Rh        -0.07936       -0.95943       -0.20095
Cl        -0.28558        0.13490        2.01117
C         -5.50163        0.40926        0.56277
C         -4.21996       -0.03913       -0.12683
N         -3.09516        0.73508        0.39001
P         -1.61742        0.69117       -0.41461
C         -2.04296        1.61580       -1.94293
C         -0.75336        1.99258        0.56291
O          0.34487        2.39795        0.22650
C         -0.14357       -3.01353        0.61299
C         -1.44218       -2.46045        0.36473
H          4.22038        2.02815        2.42216
H          4.86611        0.44439        2.86351
H          5.25894        1.15539        1.29189
H          3.51799       -0.62584        1.06699
H          2.48124        0.25865        2.20382
H          2.41630        2.05102        0.59643
H          1.28498        2.44998       -1.95910
H          2.84154        1.72069       -2.41621
H          1.31410        1.03443       -3.04310
H          3.98388       -0.26936       -1.61583
H          0.97637       -2.00378        0.17664
H         -0.10329       -1.45746       -1.62030
H         -5.64780        1.47721        0.42366
H         -6.35533       -0.12027        0.14868
H         -5.45012        0.20450        1.62991
H         -4.28754        0.15289       -1.20022
H         -4.08276       -1.11851        0.01508
H         -2.94529        0.52543        1.37705
H         -1.12683        2.03832       -2.35091
H         -2.47238        0.94318       -2.68310
H         -2.74935        2.40832       -1.69726
H         -1.35026        2.51288        1.33140
H          0.18737       -3.83085       -0.01968
H          0.16477       -3.11876        1.65062
H         -2.03756       -2.19973        1.23780
H         -2.02540       -2.89870       -0.44084
