48
1125.log
C          1.16567       -0.05502       -3.14469
P          0.90041        0.04178       -1.33395
C          1.03134        1.84899       -1.09058
C          2.55975       -0.53613       -0.74956
O          3.54851        0.37888       -1.21165
C          4.71442        0.37492       -0.49703
N          4.58825        1.15421        0.79446
O          3.51529        1.63453        1.05431
O          5.58379        1.22576        1.46926
Rh        -0.84273       -1.13836       -0.44830
Cl         0.68272       -2.63959        0.64824
C         -1.81393       -0.94017        2.91623
P         -0.89382       -0.10078        1.57702
C          0.67077        0.25222        2.46373
C         -1.70037        1.56962        1.66265
O         -3.02892        1.31581        1.22544
C         -3.67456        2.34632        0.57038
N         -3.18303        2.46334       -0.85162
O         -2.10200        2.98367       -1.00411
O         -3.88648        2.02728       -1.72196
C         -1.97660       -2.89893       -1.23121
C         -2.43903       -2.43035        0.03927
H          0.31405        0.40781       -3.64117
H          2.08223        0.46827       -3.41267
H          1.23056       -1.09804       -3.45240
H          1.22418        2.07729       -0.04484
H          0.08566        2.30036       -1.38795
H          1.84030        2.24361       -1.70137
H          2.53495       -0.60028        0.34103
H          2.74688       -1.54340       -1.14372
H          5.06373       -0.62859       -0.21103
H          5.48916        0.88020       -1.08413
H         -0.83256       -1.99832       -1.72077
H         -1.81205       -0.17898       -1.10044
H         -2.86005       -1.03250        2.63287
H         -1.38339       -1.93180        3.04803
H         -1.72626       -0.37560        3.84425
H          0.45544        0.71968        3.42399
H          1.32196        0.90115        1.88105
H          1.17339       -0.69970        2.62717
H         -1.71423        1.98389        2.68046
H         -1.17605        2.25865        0.99437
H         -4.73720        2.09093        0.52268
H         -3.50803        3.32338        1.04743
H         -2.62862       -2.76454       -2.08983
H         -1.42850       -3.83740       -1.24311
H         -2.22219       -3.05955        0.89758
H         -3.41876       -1.96121        0.07486
