34
1132.log
C          2.26402        1.40186        1.92976
P          1.43425        1.33312        0.30741
O          2.54814        2.14256       -0.53064
C          0.18421        2.70800        0.58057
C         -0.31816        3.07637       -0.70371
N         -0.68238        3.33513       -1.75786
Rh         0.78390       -0.68650       -0.53022
Cl         0.90049       -1.58564        1.71481
C         -2.35967       -2.10186        0.25741
P         -1.40271       -0.54624        0.07864
O         -1.57139        0.11517        1.52744
C         -2.62740        0.48146       -0.86134
C         -3.84960        0.56033       -0.12284
N         -4.81596        0.60082        0.48733
C          1.98894       -2.39534       -1.32131
C          0.57547       -2.62776       -1.31736
H          2.69654        2.39200        2.06495
H          3.05189        0.65151        1.95013
H          1.55296        1.17564        2.72063
H          2.44000        2.05416       -1.48175
H          0.70003        3.55769        1.03615
H         -0.62816        2.36276        1.22199
H          2.27349       -0.96711       -0.82147
H          0.59198       -0.09465       -1.91372
H         -2.48570       -2.58933       -0.70586
H         -1.81463       -2.76393        0.92920
H         -3.33010       -1.86197        0.69264
H         -0.90584       -0.32330        2.09424
H         -2.22438        1.48088       -1.03811
H         -2.79316       -0.00420       -1.82605
H          2.48425       -2.29857       -2.28283
H          2.58269       -2.92655       -0.58231
H          0.20095       -3.33934       -0.58691
H          0.07758       -2.69248       -2.28123
