42
1138.log
C          4.19229       -0.34665        1.58850
O          3.54563       -1.13064        0.60590
C          2.20005       -1.42992        0.89797
P          1.22569       -0.89353       -0.58183
C          2.10943       -1.77761       -1.90539
N          1.99786        0.72315       -0.82384
O          2.03102        1.45328        0.13822
O          2.39906        0.98799       -1.92724
Rh        -1.02663       -0.99039       -0.58593
Cl        -0.97206       -1.97463        1.58797
C          0.12446        3.28845       -2.27146
O         -0.19167        2.26684       -1.35399
C         -1.29713        2.54373       -0.53441
P         -1.37117        1.01733        0.49913
C         -2.81101        1.38972        1.57797
N         -0.17185        1.54245        1.78626
O          0.53377        0.70478        2.27405
O         -0.24068        2.70156        2.11322
C         -2.84980       -2.20625       -1.06613
C         -3.25844       -1.02437       -0.48133
H          4.24247       -0.88040        2.54225
H          3.67889        0.60839        1.73474
H          5.19929       -0.16771        1.21573
H          2.05034       -2.51257        1.00498
H          1.83612       -0.93467        1.80096
H          3.18366       -1.63852       -1.78453
H          1.78176       -1.39391       -2.87026
H          1.85715       -2.83425       -1.83335
H         -0.69147       -2.29879       -1.24444
H         -1.06609       -0.37281       -1.97116
H          0.99830        2.94216       -2.81996
H          0.36196        4.22144       -1.74888
H         -0.70617        3.46204       -2.96492
H         -2.22135        2.64766       -1.12543
H         -1.14563        3.44989        0.07127
H         -2.89519        0.60997        2.33534
H         -2.66854        2.35864        2.05814
H         -3.71922        1.40776        0.97846
H         -2.94810       -2.35110       -2.13635
H         -2.82063       -3.11025       -0.46793
H         -3.56276       -1.04394        0.55887
H         -3.69734       -0.24202       -1.09411
