46
1154.log
C          3.32378       -1.66565        0.92746
C          2.77879       -0.36849        1.51388
C          3.90531        0.54048        1.99735
P          1.67970        0.46800        0.27074
N          1.29238        1.88321        1.09998
C          2.95472        1.02157       -0.97132
O          3.75953        0.33705       -1.53912
O          2.81588        2.33277       -1.20525
Rh        -0.00359       -0.68880       -0.72958
Cl        -0.13567       -2.09585        1.21423
C         -4.48243        0.77620        0.72069
C         -3.47236       -0.26706        0.24981
C         -3.55620       -1.51838        1.12197
P         -1.73814        0.40632        0.27684
N         -1.61770        0.83615        1.89847
C         -2.06152        2.05218       -0.50732
O         -2.74764        2.23592       -1.47324
O         -1.34311        3.03127        0.06410
C          0.03779       -2.47758       -2.07093
C         -1.27787       -1.98663       -1.81310
H          3.97560       -2.15549        1.64851
H          2.50554       -2.34485        0.69734
H          3.89130       -1.47052        0.01959
H          2.11119       -0.60532        2.35232
H          3.52283        1.42021        2.51035
H          4.53451        0.85349        1.16501
H          4.53012       -0.00723        2.70090
H          2.08380        2.49831        1.26354
H          0.54972        2.40368        0.64091
H          3.40491        2.62471       -1.92270
H          1.09835       -1.54517       -1.37272
H          0.02693        0.26143       -1.91376
H         -4.17096        1.20280        1.67196
H         -5.45364        0.30314        0.85544
H         -4.59396        1.57512       -0.00692
H         -3.67038       -0.52764       -0.79633
H         -2.69499       -2.16776        0.97915
H         -4.45817       -2.08085        0.88770
H         -3.59463       -1.23915        2.17307
H         -0.77306        1.37321        2.08652
H         -1.53966       -0.03450        2.42582
H         -1.48715        3.87506       -0.40089
H          0.43830       -2.36579       -3.07397
H          0.32943       -3.40472       -1.58462
H         -1.91084       -2.59077       -1.17021
H         -1.81065       -1.51225       -2.63270
