46
1157.log
C          1.40792        2.10156       -1.56375
P          1.35018        1.11440       -0.02612
C          1.11171        2.45807        1.19722
C          3.23079        0.87375        0.24291
N          3.60918        0.47126        1.56755
C          3.59984       -0.12488       -0.80558
O          3.77590        0.13989       -1.96782
O          3.64716       -1.37987       -0.34186
Rh         0.15220       -0.83069        0.25313
Cl        -1.14075        0.20788        1.99365
C         -2.42641       -2.04280       -1.80399
P         -1.56618       -0.53644       -1.21837
C         -1.32633        0.30528       -2.83076
C         -3.05190        0.36468       -0.53781
N         -3.77338       -0.52090        0.34473
C         -2.54113        1.64992        0.07164
O         -1.56450        2.22446       -0.35679
O         -3.33549        2.15106        1.01294
C          0.54373       -2.52484        1.66263
C         -0.61401       -2.71313        0.84628
H          2.17140        2.87368       -1.47359
H          1.64196        1.45909       -2.40909
H          0.43363        2.56312       -1.69816
H          1.02498        2.05080        2.20331
H          1.93182        3.17433        1.14062
H          0.17289        2.94540        0.94708
H          3.70099        1.83522        0.00308
H          3.39621       -0.50834        1.72139
H          3.13102        1.02746        2.26845
H          3.80417       -1.99244       -1.07743
H          1.21413       -1.17423        1.30609
H          0.93575       -1.49084       -0.85846
H         -3.22493       -1.76937       -2.49207
H         -2.85249       -2.56840       -0.95384
H         -1.70640       -2.68267       -2.31020
H         -1.12819        1.36087       -2.67555
H         -2.21539        0.18288       -3.44868
H         -0.47084       -0.14895       -3.32765
H         -3.69454        0.63610       -1.38897
H         -4.63559       -0.08445        0.65596
H         -3.20019       -0.66165        1.17776
H         -2.92895        2.92444        1.43220
H          1.40799       -3.15542        1.47428
H          0.38123       -2.31239        2.71616
H         -1.58064       -2.64333        1.33700
H         -0.56669       -3.48573        0.08410
