46
1163.log
C          0.15015       -1.01059        2.65546
P          0.39189       -1.38820        0.87757
C          0.26935       -3.21147        0.93773
C          2.22810       -1.16324        0.77404
C          2.77495       -1.45160       -0.61540
C          4.13980       -0.87022       -0.84832
O          4.69448       -0.82310       -1.91041
Rh        -0.97264       -0.47358       -0.70174
Cl        -2.56726       -1.33745        0.84765
C         -2.09985        1.82657        1.78800
P         -1.08356        1.63387        0.27839
C         -1.68699        3.10527       -0.65107
C          0.52924        2.34212        0.85080
C          1.48527        2.57356       -0.31502
C          2.92720        2.48100        0.07506
O          3.34052        2.00053        1.09545
C         -2.42422       -0.91912       -2.36198
C         -2.62806        0.37916       -1.94430
H         -0.88131       -1.24016        2.91696
H          0.82476       -1.63759        3.23793
H          0.35957        0.03504        2.87039
H         -0.77428       -3.47370        1.10540
H          0.88491       -3.60195        1.74835
H          0.59050       -3.63438       -0.01275
H          2.45584       -0.13158        1.05268
H          2.69068       -1.81775        1.51824
H          2.09425       -1.05452       -1.37808
H          2.83683       -2.52801       -0.79857
H          4.62185       -0.46416        0.06348
H         -0.73627       -1.83382       -1.30286
H          0.08072        0.01580       -1.67808
H         -2.06106        2.85435        2.14786
H         -3.12654        1.55614        1.54259
H         -1.75561        1.14321        2.56014
H         -1.50487        4.00469       -0.06303
H         -1.17142        3.18691       -1.60619
H         -2.75568        3.01227       -0.83478
H          0.99370        1.63711        1.54470
H          0.34429        3.27456        1.39156
H          1.30392        3.52592       -0.81460
H          1.33355        1.78232       -1.06556
H          3.62263        2.86982       -0.69258
H         -1.91168       -1.11489       -3.29727
H         -3.08432       -1.70759       -2.01656
H         -3.46673        0.59876       -1.29083
H         -2.29060        1.19768       -2.56995
