42
1171.log
C         -1.52523       -2.96889        0.37749
P         -1.06014       -1.18307        0.37047
C         -1.81309       -0.79388        2.00018
C         -2.28951       -0.65988       -0.95241
C         -3.59905       -0.51266       -0.27194
O         -4.38373       -1.41354       -0.07470
C         -3.85181        0.83674        0.20684
N         -4.09231        1.89371        0.57415
Rh         1.18640       -0.98159       -0.17284
Cl         0.67939        0.63468       -1.88204
C          1.13361        1.01210        2.85359
P          1.75257        0.80553        1.14410
C          3.52671        1.18204        1.41864
C          1.21564        2.38438        0.33711
C         -0.14761        2.05356       -0.23748
O         -0.89586        1.32823        0.42897
C         -0.62849        2.91915       -1.28511
N         -1.01604        3.62365       -2.10126
C          2.39033       -2.15469       -1.63827
C          3.14703       -1.16341       -0.93611
H         -1.20404       -3.45351       -0.54302
H         -2.60488       -3.08047        0.48419
H         -1.02784       -3.45553        1.21466
H         -2.75715       -1.32719        2.10652
H         -1.97070        0.27187        2.12622
H         -1.11579       -1.15620        2.75547
H         -2.31007       -1.47476       -1.68024
H         -1.96294        0.26709       -1.41908
H          0.91680       -2.13260       -1.15248
H          1.50789       -1.95375        0.93759
H          1.59418        1.88853        3.30948
H          0.05401        1.12774        2.83828
H          1.39186        0.12423        3.42849
H          3.62760        2.12780        1.95058
H          3.96970        0.38357        2.01070
H          4.04952        1.24453        0.46690
H          1.92928        2.71230       -0.42105
H          1.09942        3.16676        1.09385
H          2.59219       -3.19714       -1.41224
H          2.18405       -1.97503       -2.69001
H          3.46904       -0.29665       -1.50777
H          3.88772       -1.51262       -0.22268
