46
1189.log
C         -4.93737        0.24685       -1.74031
N         -4.06018        0.49665       -0.61676
Cl        -4.20679        2.18782       -0.14337
C         -2.67316        0.17921       -0.89311
P         -1.90289       -0.65469        0.57377
C         -2.51659        0.35560        1.97425
C         -3.05228       -2.07472        0.72316
Rh         0.31825       -1.17439        0.38407
Cl         0.17055       -0.62175       -1.95120
C          3.12270        1.19238       -1.78355
N          3.60428        0.66092       -0.53534
Cl         5.35931        0.90631       -0.41423
C          2.99107        1.24808        0.62152
P          1.17133        0.89502        0.81276
C          0.40869        2.31259       -0.06947
C          1.06071        1.52166        2.53627
C          1.30636       -3.10212       -0.20853
C          2.22312       -2.04562        0.08229
H         -5.95087        0.53809       -1.46719
H         -4.92342       -0.82447       -1.93784
H         -4.63994        0.78138       -2.65012
H         -2.07588        1.04619       -1.19092
H         -2.60648       -0.53951       -1.71519
H         -2.16930       -0.10747        2.89674
H         -2.12477        1.36846        1.91491
H         -3.60377        0.38189        1.95771
H         -2.89973       -2.75653       -0.11290
H         -4.07972       -1.71320        0.72493
H         -2.83768       -2.60248        1.65136
H         -0.11836       -2.60621        0.03586
H          0.37241       -1.53833        1.85489
H          3.12527        2.28949       -1.82064
H          3.73342        0.80284       -2.59582
H          2.10604        0.81398       -1.91553
H          3.46217        0.80485        1.50631
H          3.11744        2.34612        0.66405
H          0.35855        2.10048       -1.13514
H         -0.60638        2.44065        0.30689
H          0.97786        3.22556        0.10378
H          1.51469        2.50889        2.61706
H          1.57262        0.82730        3.19910
H          0.01727        1.57421        2.83634
H          1.26982       -3.94816        0.47261
H          1.18453       -3.37981       -1.25219
H          2.74800       -1.59213       -0.75121
H          2.82802       -2.13646        0.98015
