38
1198.log
C         -1.98704        1.33101       -1.52377
P         -1.74578        0.24159       -0.06957
C         -2.71450        1.19031        1.19616
F         -2.93108        0.34492        2.25362
C         -2.99337       -1.08746       -0.45405
C         -4.26047       -0.53838       -0.82516
N         -5.26196       -0.06511       -1.11288
Rh         0.25332       -0.69535        0.50898
Cl         0.24365       -1.28524       -1.83626
C          2.82720        1.57582        1.39388
P          1.71141        0.97717        0.07458
C          1.05285        2.61064       -0.52485
F          0.01175        2.97759        0.29173
C          2.90399        0.71102       -1.32949
C          4.01183       -0.07271       -0.87231
N          4.89686       -0.68384       -0.48364
C          0.72238       -2.81640        1.06005
C          1.87998       -1.99366        0.91727
H         -1.38728        0.94760       -2.34818
H         -1.68805        2.34744       -1.28114
H         -3.03952        1.32919       -1.80792
H         -3.69376        1.50729        0.81793
H         -2.14122        2.04667        1.56405
H         -3.11062       -1.71594        0.43540
H         -2.58188       -1.68491       -1.27499
H         -0.54588       -1.95090        0.87037
H          0.16457       -0.27327        1.95858
H          3.51916        2.32808        1.01434
H          3.39029        0.73379        1.79344
H          2.21697        1.99882        2.19105
H          1.80586        3.40630       -0.46774
H          0.65868        2.52468       -1.54386
H          3.26372        1.66968       -1.71573
H          2.36895        0.16127       -2.11333
H          0.47164       -3.17249        2.05474
H          0.52500       -3.53930        0.27301
H          2.50329       -2.16217        0.04324
H          2.44693       -1.76441        1.81518
