38
120.log
C          3.72249       -0.84838        0.36500
O          3.15929        0.26006       -0.32896
P          1.60971        0.67235       -0.12925
C          1.65018        1.56049        1.47648
C          1.65579        2.08595       -1.31839
F          2.50122        3.07030       -0.87812
Rh         0.00356       -0.91218       -0.46636
Cl         0.55267       -1.69584        1.73640
C         -2.29349        2.98826        0.35450
O         -1.36212        1.93216        0.14078
P         -1.63479        0.36060        0.40457
C         -2.02844        0.24926        2.19777
C         -3.38285        0.13363       -0.21893
F         -3.43016        0.47662       -1.54244
C          0.08477       -3.02542       -1.18070
C         -1.22398       -2.59418       -0.77593
H          4.27667       -0.49478        1.23597
H          4.40657       -1.34943       -0.32080
H          2.95346       -1.55009        0.69764
H          0.74157        2.14220        1.60014
H          2.52471        2.21020        1.48738
H          1.71975        0.81947        2.27227
H          0.65747        2.51823       -1.42046
H          2.02488        1.73788       -2.28725
H          1.04226       -1.87418       -1.06876
H         -0.30357       -0.39118       -1.85551
H         -3.06493        2.98288       -0.41704
H         -1.72214        3.91367        0.27938
H         -2.75653        2.93457        1.34120
H         -2.85566        0.90162        2.47545
H         -2.28089       -0.78238        2.42900
H         -1.13740        0.50792        2.76576
H         -4.09765        0.77616        0.31066
H         -3.68556       -0.91359       -0.13435
H          0.24038       -3.23509       -2.23527
H          0.59881       -3.72103       -0.52195
H         -1.61001       -3.01305        0.15099
H         -1.97507       -2.49458       -1.55532
