38
121.log
C         -2.88215       -1.87212        1.44505
P         -1.63369       -0.54546        1.18877
O         -1.44893        0.00279        2.69875
C         -2.71564        0.84700        0.63225
C         -3.61343        0.52143       -0.54169
Cl        -4.61123        1.95159       -0.93622
Rh         0.28561       -1.10629        0.07792
Cl        -0.84657       -0.67329       -2.00966
C          0.82297        2.19327        1.42218
P          1.01311        1.06004       -0.00638
O          0.26656        1.89466       -1.13072
C          2.78409        1.39890       -0.44865
C          3.74243        0.91940        0.61655
Cl         5.42410        0.92173        0.00394
C          1.03427       -3.01132       -0.82041
C          1.90332       -1.89028       -1.02353
H         -2.42498       -2.66516        2.03656
H         -3.18839       -2.28335        0.48686
H         -3.74185       -1.47091        1.97995
H         -0.65918       -0.35317        3.11357
H         -3.30804        1.12026        1.51161
H         -2.07047        1.69104        0.37326
H         -3.03579        0.27780       -1.43330
H         -4.31105       -0.28347       -0.31475
H         -0.16730       -2.57628        0.02580
H          1.01172       -1.36535        1.38629
H          1.46465        1.87355        2.23854
H          1.09406        3.19736        1.10003
H         -0.20967        2.18981        1.76392
H         -0.20994        1.25751       -1.71919
H          2.97898        0.88175       -1.39207
H          2.88165        2.47356       -0.62541
H          3.73596        1.56649        1.49250
H          3.51485       -0.10493        0.91451
H          1.38134       -3.80761       -0.16850
H          0.47723       -3.37244       -1.68070
H          1.95227       -1.48627       -2.03158
H          2.86655       -1.91366       -0.52212
