44
1219.log
C          0.13723       -1.79302       -3.40231
C         -0.18274       -0.81632       -2.29462
O          0.62415        0.05265       -1.95674
C         -1.63845       -0.59611       -1.95609
P         -1.82912       -0.19263       -0.15553
C         -3.23079       -1.33315        0.20130
C         -2.90218        1.32860       -0.13295
O         -3.16691        1.94375        0.86017
Rh        -0.03868       -0.60412        1.20551
Cl         0.12039       -2.36268       -0.43411
C         -0.49765        3.55950        0.80008
C         -0.22493        2.63775       -0.34697
O         -1.11576        2.10103       -0.98836
C          1.20204        2.36962       -0.65377
P          1.59227        0.70177        0.11613
C          3.02404        1.33016        1.12332
C          2.67465       -0.02966       -1.22005
O          3.35782        0.64920       -1.93283
C          0.68938       -2.02171        2.76609
C          1.76743       -1.28998        2.30192
H          0.81767       -1.30462       -4.09825
H         -0.76634       -2.09975       -3.92067
H          0.63448       -2.67931       -3.01941
H         -2.23903       -1.47572       -2.19140
H         -1.97903        0.26803       -2.53471
H         -2.88173       -2.36409        0.15699
H         -4.02898       -1.17667       -0.52677
H         -3.60584       -1.12134        1.20166
H         -3.42831        1.50405       -1.09458
H         -1.15036       -1.29546        1.93952
H         -0.27676        0.52078        2.18175
H         -0.40547        4.58740        0.44935
H         -1.50517        3.40797        1.17884
H          0.22908        3.40018        1.59278
H          1.85847        3.12926       -0.23466
H          1.37110        2.23684       -1.72315
H          2.67216        1.92110        1.96729
H          3.65229        1.94168        0.47467
H          3.62409        0.50332        1.49620
H          2.70712       -1.13343       -1.24256
H          0.27344       -1.80274        3.74275
H          0.52509       -3.03383        2.40964
H          2.46397       -1.74914        1.60533
H          2.18240       -0.51778        2.93866
