44
1220.log
C          0.13759       -1.79302       -3.40216
C         -0.18236       -0.81681       -2.29394
O          0.62436        0.05259       -1.95641
C         -1.63823       -0.59640       -1.95581
P         -1.82919       -0.19293       -0.15531
C         -3.23077       -1.33354        0.20156
C         -2.90248        1.32820       -0.13284
O         -3.16730        1.94340        0.86022
Rh        -0.03852       -0.60444        1.20546
Cl         0.12073       -2.36239       -0.43488
C         -0.49850        3.56000        0.79974
C         -0.22556        2.63788       -0.34696
O         -1.11626        2.10083       -0.98825
C          1.20147        2.36997       -0.65365
P          1.59202        0.70216        0.11618
C          3.02330        1.33105        1.12384
C          2.67499       -0.02879       -1.21975
O          3.35787        0.65037       -1.93253
C          0.69024       -2.02255        2.76523
C          1.76791       -1.28996        2.30154
H          0.81770       -1.30407       -4.09802
H         -0.76604       -2.09966       -3.92046
H          0.63516       -2.67943       -3.01993
H         -2.23879       -1.47599       -2.19120
H         -1.97858        0.26770       -2.53461
H         -2.88170       -2.36448        0.15706
H         -4.02906       -1.17700       -0.52638
H         -3.60569       -1.12189        1.20200
H         -3.42869        1.50342       -1.09447
H         -1.14991       -1.29631        1.93938
H         -0.27680        0.52007        2.18212
H         -0.40627        4.58776        0.44859
H         -1.50606        3.40862        1.17841
H          0.22811        3.40107        1.59261
H          1.85774        3.12974       -0.23452
H          1.37060        2.23717       -1.72301
H          2.67096        1.92184        1.96773
H          3.65153        1.94282        0.47542
H          3.62356        0.50444        1.49689
H          2.70808       -1.13255       -1.24217
H          0.27414       -1.80440        3.74200
H          0.52650       -3.03456        2.40817
H          2.46479       -1.74828        1.60475
H          2.18236       -0.51788        2.93878
