30
1229.log
C          3.36435        1.26531       -0.21948
P          2.01556        0.29349        0.54807
C          2.72162       -0.02077        2.21652
Br         2.47792       -1.65717       -0.36186
Rh        -0.09720        1.11094        0.32962
Cl         0.47501        1.22001       -1.99442
C         -1.12218       -1.65110       -1.66867
P         -1.20184       -0.85459       -0.02487
C         -0.88860       -2.28226        1.08933
Br        -3.39303       -0.79204        0.20714
C         -0.82117        3.24082        0.19924
C         -1.83461        2.25970       -0.01118
H          3.12995        1.41555       -1.27416
H          4.32178        0.75139       -0.12017
H          3.41323        2.23758        0.27210
H          2.69336        0.91412        2.77480
H          2.11019       -0.75412        2.74207
H          3.74832       -0.38210        2.15201
H          0.50067        2.51756        0.53144
H         -0.40073        1.02330        1.82158
H         -1.46614       -0.94501       -2.42525
H         -0.08610       -1.90770       -1.88808
H         -1.74026       -2.54953       -1.68704
H         -1.54472       -3.11377        0.83013
H         -1.07889       -1.97920        2.11941
H          0.14758       -2.60398        0.99682
H         -0.86915        3.83555        1.10652
H         -0.46570        3.78974       -0.66831
H         -2.20274        2.13349       -1.02750
H         -2.60533        2.15313        0.74873
