32
1230.log
C         -1.97305       -2.08535        0.41886
P         -1.78533       -0.43270       -0.34742
Cl        -2.53360       -0.77309       -2.14267
C         -3.23238        0.40799        0.49803
O         -3.20815        0.18020        1.86459
Rh         0.09524        0.84366       -0.38855
Cl        -0.38166        1.23276        1.93111
C          2.92403       -0.28804        1.57341
P          1.68083       -0.71147        0.28824
Cl         1.09607       -2.46226        1.01744
C          2.80152       -1.36577       -1.06111
O          3.30213       -0.32643       -1.84891
C          0.88439        2.95158       -0.65646
C          1.90822        2.17957       -0.15484
H         -1.37833       -2.82420       -0.11349
H         -1.66494       -2.03212        1.46087
H         -3.03011       -2.34805        0.36744
H         -3.22727        1.47949        0.24640
H         -4.15078       -0.04617        0.10446
H         -2.39128        0.59170        2.21891
H         -0.96286        1.80049       -0.87701
H          0.36427        0.55576       -1.85125
H          3.41669       -1.19813        1.91462
H          2.41643        0.18735        2.41269
H          3.66197        0.39321        1.15490
H          3.66128       -1.86717       -0.60601
H          2.23878       -2.09805       -1.65858
H          2.56722        0.06172       -2.34584
H          0.86434        3.22893       -1.70454
H          0.32852        3.60253        0.01040
H          2.13930        2.25403        0.90194
H          2.72675        1.87053       -0.79602
