42
1233.log
C         -2.41492       -2.58584       -0.42673
P         -1.77544       -1.01029        0.24180
C         -1.75789       -1.34452        2.04809
C         -3.31945        0.00683        0.10944
O         -4.15472       -0.25996       -0.72617
C         -3.46280        1.20741        1.00059
O         -4.60159        1.95266        0.68898
Rh        -0.07141        0.08403       -0.81879
Cl        -0.02901        1.50893        1.11671
C          1.70027       -1.86998        1.63248
P          1.74100       -1.03674       -0.00395
C          2.51431       -2.32224       -1.04501
C          3.22151        0.06079        0.21840
O          4.08076        0.08961       -0.63508
C          3.28139        0.95360        1.42003
O          4.43095        1.74665        1.42488
C         -0.10511        1.88979       -2.14674
C          1.21006        1.41038       -1.87119
H         -3.25879       -2.93882        0.16479
H         -1.61643       -3.32646       -0.42290
H         -2.73575       -2.41320       -1.45267
H         -2.77003       -1.55506        2.39368
H         -1.35519       -0.47725        2.56818
H         -1.12592       -2.20867        2.24411
H         -2.55594        1.82613        0.91476
H         -3.51615        0.86710        2.04521
H         -5.05158        1.49320       -0.03885
H         -1.15406        0.95021       -1.47731
H         -0.13576       -0.84652       -2.00998
H          2.70556       -2.17090        1.92724
H          1.07047       -2.75551        1.54957
H          1.27817       -1.19498        2.37443
H          2.81895       -1.86411       -1.98445
H          3.38613       -2.74616       -0.54825
H          1.78098       -3.10029       -1.25063
H          3.25543        0.34551        2.33389
H          2.36769        1.57488        1.42528
H          4.89190        1.58490        0.58578
H         -0.48440        1.78270       -3.15865
H         -0.41259        2.81068       -1.65839
H          1.82336        2.01094       -1.20490
H          1.76987        0.95491       -2.68325
