48
124.log
C          0.23918       -1.83927        3.25748
C          0.40590       -2.34090        1.82943
P          1.31510       -1.12174        0.77236
C          2.88970       -1.06672        1.72297
N          1.76681       -2.25949       -0.42392
C          2.44856       -1.82453       -1.64616
C          3.33912       -0.71690       -1.40910
N          4.04742        0.16494       -1.23733
Rh         0.51635        1.01633        0.29691
Cl         0.40096        0.58239       -2.07473
C         -4.06922       -0.14862        1.57137
C         -2.58575        0.16557        1.76902
P         -1.73286        0.86074        0.28216
C         -2.63226        2.43483        0.05239
N         -2.49334       -0.00265       -0.95991
C         -2.08509       -1.39313       -1.11605
C         -2.97047       -2.08534       -2.02280
N         -3.66503       -2.63833       -2.74240
C          2.04766        2.71601       -0.14801
C          0.59806        3.03957       -0.13674
H          1.16503       -1.94896        3.81544
H         -0.53531       -2.40136        3.77662
H         -0.03515       -0.78450        3.25748
H         -0.57404       -2.52092        1.37753
H          0.96529       -3.28023        1.80748
H          3.66363       -0.55618        1.15400
H          2.71767       -0.51058        2.64258
H          3.21511       -2.08163        1.94788
H          0.96865       -2.83491       -0.67986
H          1.74803       -1.48771       -2.42492
H          3.03803       -2.66698       -2.03299
H          2.12382        1.55614        0.11634
H          0.50533        1.33926        1.77644
H         -4.67408        0.33551        2.33341
H         -4.25187       -1.21884        1.62980
H         -4.41506        0.18630        0.59613
H         -2.03686       -0.71764        2.09605
H         -2.43316        0.92351        2.54125
H         -3.70474        2.25068        0.03614
H         -2.32491        2.89065       -0.88680
H         -2.37616        3.10520        0.86979
H         -2.32605        0.49117       -1.83686
H         -2.13750       -1.88346       -0.13756
H         -1.05630       -1.46911       -1.50733
H          2.63800        3.21384        0.61938
H          2.52754        2.79319       -1.12288
H          0.18875        3.32021       -1.10687
H          0.28707        3.74195        0.63604
