38
1242.log
C         -4.37791       -0.36709       -0.03211
N         -3.10287        0.22197       -0.40516
P         -1.64538       -0.63459       -0.27404
C         -1.94296       -2.00886       -1.44840
N         -1.67543       -1.53456        1.17377
Rh         0.16632        0.71213       -0.45622
Cl        -0.56652        1.43137        1.73041
C          3.24783       -1.35719       -1.56723
N          3.17135       -0.98663       -0.16312
P          1.61384       -0.77088        0.46650
C          2.12926       -0.45200        2.20442
N          1.13092       -2.37284        0.41187
C          0.40635        2.83956       -1.04104
C          1.61118        2.23017       -0.54031
H         -5.17982        0.25878       -0.42615
H         -4.46492       -1.35420       -0.48340
H         -4.51958       -0.45863        1.05189
H         -2.99519        1.14783       -0.00187
H         -2.69685       -2.70250       -1.08053
H         -1.00460       -2.54031       -1.58799
H         -2.25592       -1.58298       -2.39808
H         -1.38883       -0.92530        1.93913
H         -2.59409       -1.92090        1.37356
H         -0.70377        1.81053       -1.10342
H          0.53835        0.21882       -1.83754
H          4.27051       -1.65421       -1.80235
H          2.58266       -2.20404       -1.72362
H          2.94326       -0.55177       -2.24326
H          3.72680       -0.15382        0.01549
H          1.25210       -0.49212        2.84702
H          2.56738        0.53893        2.29366
H          2.85497       -1.20975        2.49929
H          0.15474       -2.48916        0.66564
H          1.74157       -2.98584        0.94296
H          0.38892        3.12695       -2.08896
H         -0.08429        3.56212       -0.39330
H          1.94720        2.55779        0.44179
H          2.42884        2.10355       -1.24704
