44
1248.log
C         -4.95677       -0.25365       -0.65114
C         -3.54617        0.31337       -0.72155
C         -3.51431        1.72165       -1.29373
O         -3.04687        0.32367        0.62625
P         -1.52822        0.15216        1.07536
C         -1.92433       -0.15287        2.84089
Cl        -0.89091        2.04192        1.19509
Rh        -0.10109       -1.20782       -0.06860
Cl        -0.37711        0.30814       -1.89200
C          4.02051        1.81972       -1.27934
C          2.51531        1.67270       -1.10762
C          1.77716        2.97784       -1.35719
O          2.25722        1.28371        0.25801
P          1.74870       -0.14327        0.73303
C          1.84910        0.23294        2.52399
Cl         3.40843       -1.26176        0.56177
C         -0.41093       -2.88777       -1.52625
C          0.95921       -2.52810       -1.31699
H         -5.37593       -0.32484       -1.65050
H         -5.58627        0.39395       -0.04589
H         -4.94175       -1.24376       -0.20171
H         -2.91104       -0.34050       -1.33329
H         -4.02296        2.41037       -0.62306
H         -4.00285        1.73585       -2.26380
H         -2.48312        2.04133       -1.42266
H         -2.36115       -1.14445        2.92319
H         -1.02261       -0.10854        3.44396
H         -2.64099        0.59433        3.17586
H         -1.27556       -2.03488       -0.62673
H          0.01923       -2.17408        1.10087
H          4.24425        2.12269       -2.29831
H          4.52131        0.87659       -1.07383
H          4.39834        2.57356       -0.59262
H          2.13681        0.90088       -1.78625
H          2.00729        3.34738       -2.35212
H          2.07029        3.71811       -0.61693
H          0.70617        2.81140       -1.28646
H          1.12283        1.00096        2.77544
H          1.64708       -0.67418        3.08829
H          2.85128        0.59590        2.74509
H         -0.74142       -3.85445       -1.15742
H         -0.85760       -2.60873       -2.47724
H          1.46423       -2.01235       -2.13062
H          1.59373       -3.23898       -0.79489
