44
1266.log
C         -2.69530        0.27660       -1.91631
P         -1.73875        0.62927       -0.39064
C         -2.27909        2.36083        0.06044
C         -2.08474        2.69337        1.49483
O         -1.48608        2.02090        2.28603
C         -3.20241       -0.02817        0.80855
N         -3.43429       -1.42320        0.67531
O         -4.19528       -1.79032       -0.20739
O         -2.83720       -2.18780        1.40737
Rh         0.00046       -0.79449        0.16242
Cl         0.54836       -0.69242       -2.20315
C          1.20317        2.52759        1.14637
P          1.56822        0.91911        0.34801
C          1.91427        1.47119       -1.38573
C          0.62070        1.19459       -2.14996
O         -0.45366        1.67434       -1.56693
C          3.33112        0.85338        1.02871
N          4.08750       -0.28805        0.55166
O          4.26686       -0.36228       -0.64469
O          4.48246       -1.08796        1.36348
C          0.54820       -2.96175        0.41558
C          1.68281       -2.19375        0.58251
H         -3.38435       -0.55004       -1.75358
H         -3.24795        1.17054       -2.19976
H         -2.02151        0.02044       -2.72865
H         -3.33367        2.47735       -0.20174
H         -1.72210        3.07402       -0.54928
H         -2.53681        3.66081        1.79876
H         -2.88583        0.17822        1.82862
H         -4.11668        0.50106        0.53754
H         -1.09021       -1.76327       -0.13664
H         -0.39136       -0.77172        1.59964
H          2.07234        3.18452        1.12858
H          0.88152        2.35722        2.17167
H          0.38603        2.99218        0.60271
H          2.75241        0.92313       -1.81896
H          2.12027        2.54462       -1.40552
H          0.69471        1.45518       -3.21755
H          3.83342        1.76122        0.68357
H          3.28627        0.82274        2.11984
H          0.01807       -3.35658        1.27339
H          0.39207       -3.50098       -0.51298
H          2.41477       -2.16895       -0.21966
H          2.07229       -2.03371        1.58229
