44
1270.log
C         -3.88278        2.20584        1.01517
N         -2.86135        1.20507        0.77383
C         -2.54847        1.04149       -0.62881
P         -1.55408       -0.49688       -0.90839
C         -2.91534       -1.72170       -1.05616
N         -1.27364       -0.26253       -2.55486
Rh         0.16596       -1.09723        0.47628
Cl         1.55265       -1.18302       -1.49410
C          2.79176        2.67812       -2.13474
N          2.45512        1.86050       -0.99040
C          1.15822        2.17309       -0.44374
P          0.81593        1.03996        0.97272
C          2.34712        1.30600        1.92903
N         -0.24043        2.02657        1.84922
C          1.00971       -3.09403        1.01232
C          1.71725       -1.98402        1.58437
H         -4.07617        2.26818        2.08454
H         -3.51148        3.17147        0.67001
H         -4.82781        1.99416        0.49504
H         -3.14733        0.31082        1.16562
H         -3.44306        0.97492       -1.27410
H         -1.96379        1.90828       -0.96052
H         -3.39254       -1.86809       -0.08890
H         -2.49533       -2.67448       -1.37752
H         -3.64109       -1.37783       -1.79212
H         -0.52436        0.41489       -2.68740
H         -0.92168       -1.13131       -2.95577
H         -0.18478       -2.57822        0.21514
H         -0.73408       -1.09100        1.69780
H          2.85298        3.72198       -1.81898
H          2.05781        2.61033       -2.95393
H          3.76387        2.36979       -2.51437
H          2.46299        0.87527       -1.26346
H          1.16444        3.19379       -0.03860
H          0.33637        2.10671       -1.18684
H          2.30117        0.75413        2.86640
H          3.19208        0.96158        1.33814
H          2.44175        2.37312        2.12319
H         -0.24949        1.71993        2.81869
H         -1.19818        1.90492        1.49809
H          0.45914       -3.74356        1.68745
H          1.50077       -3.63216        0.20573
H          2.70064       -1.76671        1.17578
H          1.66377       -1.86616        2.66389
