50
1274.log
C         -4.22575       -0.09471       -1.02691
C         -3.26788       -1.29278       -0.99370
P         -1.79096       -0.95491        0.06443
C         -2.52497       -1.09308        1.73715
C         -1.03654       -2.65404       -0.08897
O         -1.21772       -3.41760       -0.98950
O         -0.25809       -2.78709        0.96780
O          0.43393       -4.04282        1.13608
C          1.58349       -4.12128        0.32889
Rh        -0.56321        0.90100       -0.58649
Cl        -1.84250        2.12949        1.00898
C          1.22071        3.37952        2.14745
C          2.04706        2.44727        1.27059
P          1.14252        0.88509        0.87510
C          0.91479        0.12301        2.51699
C          2.58480       -0.13545        0.28917
O          2.90716       -1.20740        0.70849
O          3.10525        0.55478       -0.70227
O          4.19882       -0.05217       -1.42416
C          3.71673       -0.74538       -2.54554
C         -1.33156        2.35493       -2.22120
C         -0.04665        2.66038       -1.54801
H         -3.88887        0.69978       -0.35933
H         -5.22338       -0.38676       -0.70994
H         -4.30341        0.32064       -2.02931
H         -2.89372       -1.53604       -1.99234
H         -3.76164       -2.18832       -0.60596
H         -3.17977       -1.96292        1.78849
H         -3.09130       -0.18114        1.92373
H         -1.73867       -1.17487        2.48372
H          2.25902       -3.28239        0.51276
H          1.32557       -4.18517       -0.73257
H          2.04869       -5.05118        0.65228
H         -1.70305        1.30855       -1.75153
H          0.23133        0.09532       -1.59932
H          1.70472        4.35090        2.22328
H          1.10939        2.97315        3.14990
H          0.22643        3.51775        1.72915
H          2.98336        2.17387        1.76938
H          2.29029        2.92643        0.31899
H          0.05429        0.58980        2.99424
H          1.80912        0.26515        3.12384
H          0.72925       -0.94220        2.37908
H          4.62062       -1.11237       -3.02919
H          3.08068       -1.58852       -2.25828
H          3.17230       -0.08100       -3.22233
H         -1.26170        2.16370       -3.29099
H         -2.13801        3.05009       -1.99104
H         -0.06323        3.54251       -0.91019
H          0.83503        2.64412       -2.18707
