44
1277.log
C         -0.93151        2.01684       -0.82843
P         -0.95770        0.99329        0.69535
C         -0.25780        2.13932        1.92592
O         -2.50187        1.15806        1.19197
C         -3.54921        0.47365        0.54165
C         -4.35354        1.39965       -0.34144
O         -4.02998        2.49956       -0.69342
O         -5.50736        0.82778       -0.70463
Rh        -0.17531       -1.15295        0.54365
Cl        -1.49920       -1.34506       -1.46373
C          1.53645       -0.55889       -2.48293
P          1.64721       -0.57228       -0.64635
C          3.18735       -1.55411       -0.44286
O          2.08882        0.96195       -0.29330
C          3.25631        1.60334       -0.74272
C          4.40649        1.45416        0.24094
O          4.40845        0.77158        1.22191
O          5.44800        2.20284       -0.14144
C         -1.01808       -3.11074        1.19219
C          0.22376       -3.21637        0.47348
H         -1.55265        2.89536       -0.66239
H         -1.34527        1.43528       -1.65084
H          0.09053        2.29862       -1.06110
H          0.80998        2.22775        1.74821
H         -0.42180        1.72756        2.91833
H         -0.74749        3.10699        1.84258
H         -4.21156        0.03825        1.29675
H         -3.16973       -0.33634       -0.10511
H         -5.99787        1.41075       -1.30613
H         -1.37284       -1.66929        1.36399
H          0.62393       -1.00660        1.81879
H          2.49037       -0.31106       -2.94869
H          1.22490       -1.54937       -2.80427
H          0.77085        0.15049       -2.79009
H          3.48809       -1.51418        0.60112
H          3.99023       -1.16903       -1.07114
H          2.97733       -2.58403       -0.71890
H          3.59306        1.24375       -1.72145
H          3.03238        2.67242       -0.83687
H          6.17922        2.11847        0.49231
H         -1.01250       -3.38511        2.24364
H         -1.91573       -3.43340        0.67041
H          0.16920       -3.62969       -0.53112
H          1.09051       -3.55915        1.03287
