46
1288.log
C          2.74999       -1.22960       -3.15867
C          2.73393       -0.56158       -1.81827
O          2.90899        0.62191       -1.66225
C          2.47681       -1.46884       -0.62783
C          3.78180       -2.11722       -0.16912
P          1.61530       -0.42666        0.66161
C          1.57727       -1.49032        2.17737
Br         3.33096        0.75835        1.41671
Rh         0.01125        1.08160       -0.01515
Cl        -0.34113       -0.10853       -2.05940
C         -2.15972       -2.96776       -0.95775
C         -1.35831       -2.29286        0.10497
O         -0.14484       -2.23908        0.06952
C         -2.08468       -1.60092        1.22753
C         -3.46906       -2.13122        1.56431
P         -1.94520        0.23371        0.77996
C         -2.65502        0.98231        2.30308
Br        -3.72616        0.41161       -0.50108
C          0.20210        2.97415       -1.21500
C         -1.12851        2.71358       -0.83003
H          1.71255       -1.31476       -3.48335
H          3.17753       -2.22702       -3.10641
H          3.28642       -0.61721       -3.87884
H          1.76617       -2.24620       -0.91532
H          4.51709       -1.37008        0.12693
H          3.60638       -2.79414        0.66479
H          4.20449       -2.69830       -0.98753
H          0.99033       -2.38898        2.01972
H          1.13510       -0.89692        2.97986
H          2.59135       -1.75834        2.47077
H          1.22218        1.77073       -0.59128
H          0.21829        1.83765        1.28801
H         -1.49112       -3.42691       -1.68121
H         -2.76547       -2.22088       -1.47181
H         -2.82618       -3.71474       -0.53367
H         -1.43408       -1.65468        2.11342
H         -3.88199       -1.61337        2.42755
H         -4.16402       -2.02388        0.73508
H         -3.39751       -3.18774        1.82050
H         -1.97239        0.79857        3.13185
H         -2.72260        2.05944        2.14911
H         -3.64600        0.59653        2.53711
H          0.74285        3.78306       -0.73483
H          0.49006        2.78422       -2.24419
H         -1.81520        2.36695       -1.59864
H         -1.58341        3.35507       -0.07784
