44
129.log
C          1.97135        3.47130       -0.21016
C          2.40467        2.59993       -1.37995
C          3.09069        1.32123       -0.91609
P          1.94336        0.03428       -0.21112
C          3.20792       -1.20003       -0.05457
N          4.04710       -1.97914       -0.02805
C          1.76824        0.51186        1.56692
O          0.79597        1.10558        1.96302
O          2.79985        0.16487        2.30346
Rh        -0.03508       -0.76233       -0.96590
Cl         0.66712       -2.09756        0.94385
C         -2.75380        2.37960       -1.69614
C         -1.64874        2.84510       -0.76024
C         -1.73253        2.15799        0.59908
P         -1.44615        0.34023        0.47944
C         -1.37571       -0.07068        2.20972
N         -1.41390       -0.35583        3.31781
C         -3.23862       -0.21961        0.51696
O         -4.19369        0.49690        0.41826
O         -3.29969       -1.51799        0.76657
C         -0.37250       -2.56645       -2.26449
C         -1.55459       -2.10100       -1.62360
H          1.47288        4.36935       -0.56649
H          1.28193        2.92736        0.43118
H          2.83347        3.77085        0.38301
H          1.53457        2.33136       -1.98622
H          3.09430        3.15979       -2.01639
H          3.55865        0.82068       -1.77251
H          3.87366        1.53174       -0.17892
H          2.65313        0.34129        3.25044
H          0.80626       -1.59261       -1.94208
H         -0.31445        0.19017       -2.10884
H         -2.64757        1.31108       -1.88812
H         -3.73205        2.55070       -1.25460
H         -2.69914        2.90640       -2.64595
H         -0.67907        2.62654       -1.21391
H         -1.71747        3.92520       -0.61178
H         -0.98055        2.55828        1.28211
H         -2.72531        2.30200        1.03662
H         -4.21497       -1.82772        0.88693
H         -0.29996       -2.46414       -3.34318
H          0.08907       -3.46973       -1.87497
H         -1.92828       -2.68966       -0.79107
H         -2.33018       -1.65874       -2.24333
