42
1293.log
C          1.01373        3.21017        0.67322
C          1.02746        2.04279        1.64582
P          1.39607        0.42442        0.86180
F          2.12807       -0.21349        2.15488
O          2.77100        0.93075        0.09693
C          3.58757       -0.01933       -0.41048
C          4.70890        0.57709       -1.20715
O          3.39820       -1.18360       -0.21655
Rh         0.02398       -1.10633       -0.09646
Cl        -1.16577       -0.75563        1.95151
C          0.08370        1.63655       -2.91385
C         -1.25204        1.70547       -2.19154
P         -1.49090        0.16375       -1.20039
F         -2.22350       -0.65207       -2.38444
O         -2.90973        0.41058       -0.42727
C         -2.82338        1.21575        0.65509
C         -3.98063        1.08225        1.58367
O         -1.90088        1.98255        0.75289
C         -0.10711       -3.31761        0.20975
C         -1.16981       -2.78792       -0.57044
H          0.90003        4.14080        1.22501
H          0.17516        3.11804       -0.00849
H          1.93846        3.25440        0.10252
H          0.05997        1.95039        2.13809
H          1.80276        2.17531        2.40562
H          5.22809        1.32042       -0.60721
H          5.39580       -0.20440       -1.51615
H          4.29714        1.07444       -2.08295
H          0.92045       -2.13439        0.57529
H          0.82044       -1.26937       -1.37450
H          0.89447        1.55134       -2.19018
H          0.24321        2.52803       -3.51683
H          0.11564        0.76402       -3.56364
H         -1.29676        2.57420       -1.53702
H         -2.08541        1.75066       -2.89745
H         -3.77600        0.23841        2.24134
H         -4.08207        1.98120        2.18409
H         -4.88787        0.87479        1.02352
H          0.63321       -3.94052       -0.28189
H         -0.32466       -3.60595        1.23458
H         -2.15035       -2.71134       -0.10716
H         -1.20042       -3.02616       -1.62943
