46
1298.log
C          1.77018        1.60648        2.13261
P          1.19479        1.54970        0.39537
C          2.45778        2.63671       -0.37816
C         -0.22966        2.72645        0.49417
C         -0.78122        3.12166       -0.88054
N         -2.03347        3.85245       -0.83608
Rh         0.94921       -0.49825       -0.59581
Cl         1.93779       -1.57366        1.30321
C         -1.33592       -2.90998        0.47388
P         -1.02672       -1.10744        0.37202
C         -1.25645       -0.68800        2.14232
C         -2.58036       -0.48884       -0.41802
C         -3.91130       -0.75057        0.29803
N         -5.07077       -0.30238       -0.44968
C          2.34599       -1.64866       -1.90197
C          1.10683       -2.31888       -1.65679
H          2.66992        0.99800        2.20973
H          1.01752        1.17458        2.78861
H          1.98357        2.63326        2.42954
H          2.45861        3.62189        0.08815
H          2.25497        2.73112       -1.44335
H          3.43555        2.17304       -0.24860
H          0.09103        3.61497        1.04914
H         -1.02199        2.23445        1.06869
H         -0.93811        2.21725       -1.47619
H         -0.05663        3.74666       -1.40704
H         -2.74375        3.31275       -0.35140
H         -1.91753        4.72591       -0.33244
H          2.33510       -0.25304       -1.20763
H          0.28169        0.14132       -1.79921
H         -2.23485       -3.11501        1.05340
H         -0.47745       -3.36076        0.97054
H         -1.43430       -3.32917       -0.52597
H         -1.35257        0.38782        2.27657
H         -0.36729       -1.03604        2.66723
H         -2.13612       -1.19000        2.54172
H         -2.59996       -0.94416       -1.41474
H         -2.45155        0.58800       -0.56578
H         -4.04207       -1.81920        0.48257
H         -3.92855       -0.23173        1.25985
H         -5.13047       -0.79210       -1.33650
H         -4.99979        0.68925       -0.65481
H          2.54090       -1.28912       -2.90853
H          3.22783       -2.03801       -1.40071
H          1.14601       -3.18459       -1.00257
H          0.42680       -2.43662       -2.49711
