48
1303.log
C          5.14530        0.10782       -0.36764
O          4.80929        1.06419        0.61116
C          3.44827        1.07181        0.93832
C          2.53914        1.60888       -0.13730
O          2.89829        2.13889       -1.15797
P          0.71594        1.28333        0.10411
C          0.06288        2.74729       -0.77087
C          0.46088        1.74489        1.85857
Rh         0.16799       -0.82332       -0.62889
Cl         1.44005       -1.65597        1.21842
C         -3.95996        2.82912       -0.93387
O         -4.62097        1.60145       -0.72527
C         -3.78468        0.48409       -0.65895
C         -2.88677        0.38962        0.55459
O         -2.81408        1.22107        1.42436
P         -1.73948       -1.08022        0.59440
C         -1.63035       -1.30899        2.40112
C         -2.87711       -2.45723        0.15795
C          1.28526       -2.25399       -1.93331
C          0.06742       -2.78755       -1.40985
H          4.81615       -0.89281       -0.06156
H          6.22969        0.12553       -0.45246
H          4.70199        0.35154       -1.33850
H          3.08351        0.06094        1.20330
H          3.34841        1.70777        1.82400
H          0.34403        2.67547       -1.82038
H         -1.02164        2.75973       -0.68360
H          0.48125        3.65803       -0.34346
H          0.87197        0.96624        2.49902
H          0.94524        2.69899        2.06689
H         -0.61135        1.83448        2.03618
H          1.43818       -0.77047       -1.48829
H         -0.62587       -0.28184       -1.80414
H         -3.35762        3.11535       -0.06704
H         -3.32262        2.78355       -1.82578
H         -4.74310        3.56893       -1.08568
H         -4.45259       -0.38239       -0.66157
H         -3.12290        0.40978       -1.54080
H         -2.61876       -1.51533        2.81152
H         -1.22160       -0.40948        2.85656
H         -0.95262       -2.13894        2.59890
H         -3.08986       -2.45423       -0.90884
H         -2.37498       -3.39117        0.41001
H         -3.80291       -2.38353        0.72830
H          1.33966       -2.06314       -3.00104
H          2.21512       -2.62159       -1.50797
H          0.15493       -3.54251       -0.63282
H         -0.74101       -2.97388       -2.11189
