28
1315.log
C         -2.83344        1.53768       -1.27166
P         -1.60628        0.65422       -0.17683
Br        -2.34920       -1.36987       -0.46960
C         -2.41036        1.09983        1.44799
O         -2.21371        2.14058        1.98893
Rh         0.55149        1.25976       -0.68978
Cl         1.14061        1.65597        1.66166
C          3.12258       -0.89878        0.93079
P          1.42389       -0.67399        0.27624
Br         1.04856       -2.78622       -0.25863
C          0.48462       -0.50260        1.87196
O         -0.74147       -0.47791        1.87864
C          2.68462        1.55746       -1.29016
C          2.01650        2.75221       -1.46691
H         -2.31215        2.21714       -1.94086
H         -3.51958        2.11624       -0.65128
H         -3.40629        0.82944       -1.86801
H         -3.10239        0.32586        1.83106
H         -0.13164        2.57828       -0.93820
H          0.22765        0.85558       -2.10511
H          3.80199       -1.13002        0.10977
H          3.45409        0.00443        1.44021
H          3.12071       -1.73496        1.63265
H          1.04637       -0.72043        2.79345
H          3.35028        1.44858       -0.44099
H          2.91729        0.93301       -2.14725
H          1.72422        3.07121       -2.46050
H          2.13455        3.54874       -0.73907
