46
132.log
C         -6.13959        0.79584        0.75821
C         -4.78445        1.41447        0.56419
O         -4.38971        2.41951        1.08659
O         -4.04806        0.68230       -0.29274
C         -2.68367        1.04072       -0.43126
P         -1.69472       -0.52717       -0.34257
C         -2.43787       -1.59420       -1.62959
C         -2.64047       -1.26848        1.07401
O         -3.20442       -0.67892        1.95233
Rh         0.46646       -0.88967        0.45801
Cl         1.17275       -1.57204       -1.78840
C          5.15859        1.82351        1.86871
C          4.63147        1.02830        0.70789
O          4.95576       -0.09103        0.42016
O          3.72589        1.74475        0.01900
C          3.06206        1.11102       -1.06428
P          1.27750        0.94287       -0.59381
C          0.84412        2.70515       -0.35174
C          0.51967        0.55926       -2.24001
O         -0.70095        0.51460       -2.33811
C          1.36791       -2.66241        1.45666
C          2.27080       -1.55750        1.30526
H         -6.46706        0.30391       -0.15263
H         -6.85141        1.55438        1.06849
H         -6.04996        0.05104        1.54744
H         -2.52470        1.53519       -1.39243
H         -2.39697        1.70588        0.39373
H         -3.50723       -1.39197       -1.67294
H         -1.97691       -1.38376       -2.58998
H         -2.25936       -2.63586       -1.36040
H         -2.59232       -2.38439        1.08402
H         -0.01103       -2.27312        0.94205
H          0.09280       -0.25666        1.77335
H          5.25503        2.86979        1.59499
H          6.11366        1.41767        2.18726
H          4.44890        1.74604        2.69046
H          3.15175        1.76330       -1.94160
H          3.52033        0.13671       -1.27123
H          1.15097        3.29185       -1.21865
H          1.34635        3.07594        0.54048
H         -0.23328        2.78155       -0.21319
H          1.15296        0.67016       -3.13426
H          1.06190       -2.92489        2.46526
H          1.53356       -3.52810        0.81948
H          3.07540       -1.66497        0.58268
H          2.57771       -1.03893        2.20964
