50
1331.log
C          4.91932        0.43133        1.04611
C          3.70196       -0.28745        0.47272
C          4.09355       -1.58746       -0.21758
N          3.03382        0.62536       -0.45346
P          1.38203        0.67048       -0.67927
C          1.35038        1.95382       -1.99496
N          1.49271        2.60735        1.25349
O          2.32825        3.15170        0.59989
O          0.91584        1.51675        0.71781
Rh        -0.14016       -1.02666       -0.72829
Cl         0.93976       -1.98761        1.17348
C         -3.81378        2.11646       -1.07162
C         -2.34264        2.20125       -0.67410
C         -1.89107        3.65466       -0.54639
N         -2.08554        1.51938        0.58464
P         -1.53355       -0.03181        0.76324
C         -1.20775       -0.04464        2.55290
N         -3.14548       -0.93689        0.83212
O         -3.71854       -1.00689       -0.23418
O         -3.58556       -1.31763        1.89136
C         -0.12747       -3.07434       -1.66167
C         -1.30236       -2.78071       -0.89903
H          5.38386       -0.17859        1.81529
H          5.64990        0.62300        0.26225
H          4.62517        1.38240        1.48321
H          2.99184       -0.50892        1.27510
H          4.59763       -2.24473        0.48476
H          3.20185       -2.09592       -0.57785
H          4.75871       -1.39164       -1.05824
H          3.55465        0.73190       -1.31589
H          1.47853        1.45176       -2.95121
H          0.38238        2.44693       -1.99370
H          2.14250        2.68362       -1.84493
H          0.74602       -1.86205       -1.67517
H         -0.83234       -0.43004       -1.93928
H         -4.11347        1.07723       -1.17952
H         -4.43950        2.58811       -0.31559
H         -3.97491        2.62335       -2.01891
H         -1.73960        1.68165       -1.42698
H         -0.86140        3.70698       -0.20129
H         -1.96856        4.15970       -1.50552
H         -2.51723        4.18151        0.17071
H         -2.62561        1.89336        1.35792
H         -2.05873        0.36280        3.09787
H         -0.31288        0.54197        2.74305
H         -1.02797       -1.07087        2.86928
H         -0.23902       -3.17840       -2.73729
H          0.57968       -3.77616       -1.22692
H         -1.40961       -3.29122        0.05524
H         -2.23751       -2.65402       -1.43727
