44
1336.log
C         -3.13793        0.66342        2.12532
C         -2.54279       -0.65392        1.63584
C         -1.60632       -1.25539        2.67356
P         -1.64176       -0.35391        0.04191
N         -3.15298        0.16916       -0.87971
O         -3.19913        1.29263       -1.30644
O         -4.01890       -0.66871       -0.95646
N         -1.75759       -2.03013       -0.73389
O         -2.25803       -2.92087       -0.11651
O         -1.32044       -2.04748       -1.85273
Rh        -0.02591        1.17413       -0.43606
Cl         0.20275        1.80012        1.86936
C          2.48677       -0.56077        2.55449
C          3.06685        0.06976        1.29031
C          4.42907       -0.52098        0.94730
P          1.84684       -0.06705       -0.11076
N          1.46597       -1.83044        0.07905
O          2.32710       -2.62853       -0.18282
O          0.36227       -2.08008        0.52529
N          2.49246       -0.55682       -2.54361
O          2.95894       -0.15899       -1.31442
O          1.38787       -0.98957       -2.49829
C         -0.09931        3.34177       -0.95860
C          1.22026        2.82484       -0.94940
H         -3.86978        1.06992        1.42851
H         -3.63759        0.50043        3.07771
H         -2.35141        1.40058        2.28041
H         -3.33735       -1.37279        1.38767
H         -0.81716       -0.54770        2.91706
H         -2.16422       -1.47018        3.58220
H         -1.16419       -2.17986        2.31131
H         -1.17135        2.15002       -0.59715
H         -0.17150        0.81773       -1.89886
H          3.11164       -0.29825        3.40531
H          1.48427       -0.18608        2.74984
H          2.45707       -1.64664        2.48341
H          3.15298        1.15119        1.45223
H          5.07100       -0.44587        1.82266
H          4.90229        0.01110        0.12631
H          4.34397       -1.57281        0.67925
H         -0.55466        3.58934       -1.91168
H         -0.39764        3.98507       -0.13641
H          1.87134        3.11731       -0.12936
H          1.73312        2.70218       -1.90064
