50
1344.log
C          2.77782       -3.48029        0.00424
C          1.80217       -2.59027       -0.75371
P          1.44089       -0.95376        0.02305
C          1.24137       -1.37554        1.79148
O          3.06942       -0.49195       -0.01716
C          3.38918        0.66070        0.53694
O          2.64755        1.32100        1.21140
O          4.65167        0.96050        0.25076
C          5.17067        2.17804        0.77483
Rh        -0.18038        0.22742       -1.15826
Cl        -1.40655       -1.76223       -0.66617
C         -2.58008        3.47008       -0.46013
C         -2.78719        2.15464        0.27625
P         -1.17957        1.28102        0.55454
C         -0.24865        2.52097        1.50533
O         -1.48028        0.31188        1.84682
C         -2.28584       -0.77025        1.84462
O         -2.04499       -1.73298        2.50693
O         -3.39756       -0.53822        1.16011
C         -4.27980       -1.64597        1.01753
C         -0.55347       -0.19370       -3.40477
C         -1.49022        0.70685       -2.68390
H          3.69106       -2.93868        0.24092
H          3.04042       -4.33717       -0.61384
H          2.33486       -3.85440        0.92327
H          0.84488       -3.09787       -0.88087
H          2.20280       -2.36643       -1.74863
H          2.12380       -1.90037        2.15242
H          0.35414       -1.99816        1.89417
H          1.09034       -0.46399        2.36610
H          4.40683        2.68670        1.36452
H          5.47873        2.80360       -0.06277
H          6.03321        1.93955        1.39704
H          0.30454       -0.48039       -2.61155
H          0.63966        1.46913       -1.44144
H         -3.52902        3.84654       -0.83642
H         -1.90653        3.32266       -1.30167
H         -2.15166        4.22333        0.19566
H         -3.42921        1.49312       -0.30692
H         -3.25315        2.31228        1.25249
H         -0.01436        3.35352        0.84962
H          0.68578        2.08025        1.84018
H         -0.83899        2.85392        2.35683
H         -4.43231       -2.13451        1.98075
H         -5.21283       -1.24307        0.63206
H         -3.84472       -2.35703        0.31194
H         -0.01490        0.26715       -4.23149
H         -0.98300       -1.15171       -3.69521
H         -2.49347        0.30506       -2.54837
H         -1.52054        1.72856       -3.05928
