46
1346.log
C          2.91710       -1.35397        1.58631
C          2.90071       -0.56239        0.28871
O          3.97759        0.39606        0.33540
C          4.76452        0.44122       -0.65775
N          5.49191        0.50603       -1.53949
P          1.28162        0.36540        0.03520
C          1.36507        1.40287        1.54291
C          1.82345        1.52059       -1.28161
Rh        -0.38437       -1.15839       -0.41633
Cl        -0.72280       -1.41839        1.94848
C         -2.19204        1.77110        1.81608
C         -2.25233        1.80934        0.30063
O         -1.06130        2.37723       -0.27999
C         -0.84850        3.61539       -0.08872
N         -0.61633        4.72643        0.05879
P         -2.25815        0.12885       -0.50746
C         -3.78763       -0.53464        0.25233
C         -2.87925        0.62378       -2.15857
C         -0.28213       -3.38637       -0.59776
C         -1.59947       -2.86465       -0.75796
H          1.94609       -1.81801        1.75363
H          3.12034       -0.68485        2.41908
H          3.68502       -2.12498        1.56608
H          3.04579       -1.22182       -0.57864
H          0.77377        2.30623        1.42380
H          2.40440        1.68155        1.71783
H          0.98368        0.82684        2.38508
H          2.24200        0.94522       -2.10758
H          0.96353        2.07317       -1.65101
H          2.56656        2.22237       -0.90500
H          0.72880       -2.20351       -0.39492
H         -0.15548       -0.98203       -1.90420
H         -3.17905        1.55008        2.21411
H         -1.86952        2.73531        2.20975
H         -1.50367        0.99486        2.14828
H         -3.11707        2.40003       -0.04049
H         -4.15158       -1.36589       -0.34860
H         -4.55271        0.23989        0.30240
H         -3.55549       -0.89562        1.25302
H         -2.13526        1.24613       -2.65264
H         -3.02018       -0.27657       -2.75413
H         -3.82377        1.16147       -2.07924
H          0.20774       -3.81406       -1.46733
H         -0.06206       -3.90798        0.32938
H         -2.29641       -3.04271        0.05567
H         -2.04941       -2.92594       -1.74562
