32
1354.log
C          1.83325        2.76092       -1.47104
C          1.96371        2.40982        0.00095
P          1.82030        0.60162        0.24967
O          2.08726        0.51874        1.80102
F          3.31680        0.22858       -0.28835
Rh         0.19045       -0.80132       -0.52204
Cl         0.14444       -1.74304        1.74991
C         -4.04255        1.69066       -0.02892
C         -3.05149        0.84077       -0.80928
P         -1.51315        0.53415        0.14542
O         -2.08467        0.18896        1.56989
F         -1.13467        2.10232        0.40954
C          0.21784       -2.85536       -1.36311
C         -1.09952       -2.31130       -1.19492
H          1.97806        3.82746       -1.62701
H          2.57447        2.21861       -2.05498
H          0.84349        2.48697       -1.83211
H          2.94368        2.68576        0.39772
H          1.19291        2.89944        0.59363
H          1.64546       -0.26722        2.18253
H          1.26028       -1.81617       -0.95133
H          0.22190       -0.18685       -1.90051
H         -4.31531        1.19619        0.89978
H         -4.94397        1.85403       -0.61582
H         -3.60555        2.65619        0.21323
H         -3.47719       -0.13299       -1.05637
H         -2.75786        1.32767       -1.74100
H         -1.50314       -0.47642        2.00217
H          0.57382       -3.00940       -2.37716
H          0.52231       -3.64248       -0.67824
H         -1.71114       -2.73490       -0.40161
H         -1.66265       -2.08418       -2.09632
