44
1358.log
C          3.94448        3.00351       -1.04600
C          3.51248        1.82183       -0.18625
C          2.47416        0.96588       -0.90062
P          1.61339       -0.20783        0.25562
O          1.37326        0.43296        1.58797
C          2.99241       -1.45882        0.54441
O          2.99547       -2.62051        0.25500
O          3.97808       -0.86266        1.20696
Rh        -0.26281       -1.22568       -0.57976
Cl        -0.89096       -1.39171        1.76549
C         -5.19107        1.14591        0.87856
C         -3.70794        0.79619        0.84153
C         -3.08037        1.24105       -0.47414
P         -1.28147        0.86403       -0.66437
O         -1.07098        1.73768       -2.00097
C         -0.68537        2.05797        0.64444
O         -1.07932        2.08029        1.77726
O          0.21538        2.89356        0.14714
C         -1.47808       -3.03419       -1.16148
C         -2.27610       -1.92517       -1.33089
H          4.68345        3.60440       -0.52123
H          4.38505        2.65642       -1.97857
H          3.09195        3.63641       -1.28506
H          4.38251        1.21648        0.06893
H          3.08156        2.18049        0.75044
H          2.91058        0.38708       -1.71791
H          1.69888        1.61565       -1.31707
H          0.00055       -0.52350        2.13954
H          4.67989       -1.49298        1.44988
H          0.61828       -2.43802       -0.50596
H          0.26110       -1.11336       -1.97931
H         -5.63052        0.82683        1.82019
H         -5.72459        0.65514        0.06629
H         -5.33290        2.21992        0.78123
H         -3.19682        1.28249        1.67293
H         -3.59097       -0.28189        0.97063
H         -3.17523        2.32500       -0.59943
H         -3.58375        0.76596       -1.32253
H         -0.33880        1.42328       -2.53907
H          0.57867        3.47048        0.84159
H         -1.02486       -3.51742       -2.01821
H         -1.60023       -3.66455       -0.28684
H         -3.04550       -1.70260       -0.60108
H         -2.45727       -1.53534       -2.32693
