38
136.log
C         -1.68993        1.87488        0.93246
P         -1.65657        0.07141        0.56188
Cl        -3.00530       -0.52065        1.89699
C         -2.66556       -0.08585       -0.98386
C         -3.91850        0.78995       -1.05877
C         -3.57378        2.13180       -1.44758
N         -3.25967        3.18200       -1.77315
Rh         0.30614       -1.08403        0.61020
Cl        -0.29643       -2.13116       -1.45147
C          0.71242        1.14680       -2.13714
P          1.55379        0.22126       -0.79043
Cl         2.89098       -0.74131       -1.87083
C          2.67250        1.53064       -0.09733
C          1.91355        2.52710        0.77567
C          2.83228        3.41102        1.44719
N          3.57749        4.10322        1.96790
C          0.83545       -3.09817        1.47059
C          1.92240       -2.44399        0.82569
H         -1.17529        2.02697        1.88034
H         -2.71258        2.23573        1.02593
H         -1.18027        2.43545        0.15370
H         -2.00571        0.10701       -1.83128
H         -2.93738       -1.14465       -1.03570
H         -4.60019        0.38744       -1.81431
H         -4.44562        0.80591       -0.09979
H         -0.42461       -2.14326        1.44146
H          0.72455       -0.37288        1.88837
H         -0.03873        1.82806       -1.74285
H          0.22699        0.41415       -2.78151
H          1.45194        1.70028       -2.71588
H          3.18525        2.03764       -0.91967
H          3.42407        1.01246        0.50599
H          1.33644        1.98107        1.53022
H          1.22862        3.13207        0.17522
H          0.86822       -3.20910        2.55023
H          0.37382       -3.93439        0.95312
H          2.23852       -2.84332       -0.13352
H          2.74037       -2.08424        1.44484
