46
1372.log
C          0.65808       -2.85258        2.01345
C          0.96245       -1.36860        2.15457
P          1.61879       -0.54614        0.63823
C          2.92241       -1.73196        0.11736
O          2.48670        0.54561        1.50111
C          3.05941        1.68564        0.90058
O          3.65304        1.42969       -0.31572
Rh         0.20977        0.16910       -1.03627
Cl        -0.42329       -2.13037       -1.10583
C         -0.68812        3.36392        1.32478
C         -0.92566        1.93545        1.79029
P         -1.43222        0.81693        0.41387
C         -2.88293        1.71433       -0.27561
O         -2.14498       -0.27643        1.39034
C         -2.92909       -1.33657        0.87395
O         -4.24158       -0.94547        0.67989
C          0.33864        0.04857       -3.26942
C         -0.92007        0.53221       -2.77831
H          1.56609       -3.42974        1.85909
H         -0.00785       -3.02807        1.17291
H          0.17434       -3.21540        2.91892
H          1.72597       -1.19728        2.92017
H          0.05494       -0.83553        2.44777
H          3.60139       -1.24466       -0.58123
H          3.48096       -2.05811        0.99373
H          2.44769       -2.57943       -0.37071
H          2.29027        2.47082        0.81488
H          3.84858        2.01851        1.58403
H          2.95086        1.30302       -0.97486
H          1.25945       -0.20612       -2.10422
H          0.69599        1.61028       -1.03157
H         -1.62354        3.85383        1.06690
H         -0.20456        3.94312        2.10907
H         -0.04529        3.37079        0.44622
H         -1.70778        1.89568        2.55239
H         -0.00649        1.52828        2.21962
H         -2.54214        2.54428       -0.88722
H         -3.51196        2.07321        0.53823
H         -3.45586        1.02568       -0.89474
H         -2.55397       -1.68090       -0.09384
H         -2.84581       -2.14890        1.61105
H         -4.61719       -0.66121        1.52240
H          0.97014        0.74752       -3.81175
H          0.35330       -0.95567       -3.68371
H         -1.76932       -0.13991       -2.86673
H         -1.16667        1.57101       -2.98185
