42
1378.log
C          1.97771        3.69314        0.43111
C          2.89822        2.51265        0.71239
O          2.20588        1.27759        0.83753
P          1.47001       -1.11426        0.18676
C          2.58744       -1.46990        1.57601
C          2.29123       -2.03599       -1.18332
O          2.64443       -1.53568       -2.21720
Rh        -0.73669       -1.40875        0.14632
Cl        -0.39289       -0.04552        2.08771
C         -3.29344        3.02693        0.26356
C         -1.87835        2.47542        0.29378
O         -1.62252        1.80747       -0.95057
P         -0.68686        0.52904       -1.11050
C         -0.83579        0.42573       -2.92731
C          1.86747        0.64782       -0.33699
O          0.79394        1.22660       -1.00988
C         -2.70276       -2.12313        0.86836
C         -2.92070       -1.07199       -0.00527
H          2.55872        4.61170        0.40954
H          1.22868        3.76306        1.21603
H          1.47630        3.56660       -0.52519
H          3.39728        2.64472        1.67610
H          3.65800        2.42080       -0.07749
H          3.60528       -1.17650        1.31724
H          2.23895       -0.90671        2.44115
H          2.53583       -2.53970        1.78203
H          2.34166       -3.13256       -1.02012
H         -0.48246       -2.68215        0.92410
H         -0.79643       -2.29458       -1.08276
H         -3.41767        3.69247       -0.58718
H         -3.48801        3.57875        1.17891
H         -4.01816        2.22077        0.17749
H         -1.15557        3.29086        0.39099
H         -1.73904        1.79114        1.13641
H         -0.55660        1.38750       -3.35106
H         -1.86020        0.18544       -3.19402
H         -0.17116       -0.35284       -3.29395
H          2.72189        0.63987       -1.04586
H         -2.89853       -3.14158        0.55312
H         -2.75578       -1.94773        1.93882
H         -3.17478       -0.09505        0.39197
H         -3.28539       -1.27015       -1.00846
