46
1390.log
C         -3.26552       -1.74492        1.59597
N         -2.98196       -0.32472        1.46753
P         -1.97998        0.14485        0.18244
C         -3.19022        0.12271       -1.18683
C         -1.99056        1.97363        0.57189
C         -1.48960        2.81115       -0.58736
F         -3.29014        2.32564        0.88529
Rh        -0.04273       -1.00231       -0.25191
Cl         0.01104        0.09586       -2.37482
C          2.40674       -1.28802        2.66283
N          2.82855       -0.49450        1.52181
P          1.63972        0.29994        0.61056
C          1.35413        1.71215        1.74781
C          2.84286        1.08726       -0.58906
C          2.32803        2.28166       -1.36355
F          3.94506        1.46775        0.15949
C          0.18574       -2.92449       -1.38025
C          1.43060       -2.35996       -0.95850
H         -3.96580       -1.89217        2.41747
H         -3.73256       -2.09494        0.67661
H         -2.36608       -2.34652        1.77956
H         -2.61740        0.03798        2.34497
H         -3.51697       -0.90104       -1.36541
H         -2.70423        0.49110       -2.08835
H         -4.04389        0.74204       -0.91558
H         -1.41169        2.14700        1.48924
H         -2.26883        2.88616       -1.34207
H         -0.62614        2.32479       -1.03672
H         -1.22164        3.81602       -0.26654
H         -0.98494       -2.04880       -0.87099
H         -0.12593       -1.71760        1.08570
H          1.79639       -2.15648        2.38798
H          1.82215       -0.65889        3.33163
H          3.29304       -1.63225        3.19564
H          3.41976       -1.05100        0.90843
H          0.84006        2.51745        1.22974
H          2.32719        2.04800        2.10422
H          0.74404        1.38564        2.58838
H          3.19994        0.30976       -1.27903
H          3.12552        2.67491       -1.99157
H          1.50459        1.96555       -1.99902
H          1.99822        3.06989       -0.69139
H         -0.13321       -3.85322       -0.91469
H         -0.05329       -2.86336       -2.43824
H          2.05780       -1.92719       -1.73350
H          1.98940       -2.90321       -0.19981
