46
1397.log
C         -3.09607       -1.89429       -1.10264
N         -2.94491       -1.52595        0.30022
P         -1.60684       -0.56256        0.71004
C         -1.90066       -0.53337        2.52263
C         -2.26559        1.08017        0.17613
C         -3.66489        1.38430        0.67641
F         -4.11552        2.55464        0.10965
Rh         0.46455       -1.12923       -0.08906
Cl        -0.18749       -0.06834       -2.12824
C          3.62530       -0.70611        1.97898
N          3.30486        0.28725        0.96873
P          1.70138        0.66115        0.59841
C          1.14760        1.65978        2.06205
C          2.10113        2.00137       -0.60300
C          0.92201        2.85436       -1.03568
F          1.39185        3.95132       -1.72419
C          1.11521       -2.85867       -1.37398
C          2.15051       -1.90723       -1.10454
H         -4.11483       -2.24785       -1.26591
H         -2.39767       -2.67666       -1.42003
H         -2.91975       -1.01725       -1.72245
H         -2.95001       -2.36177        0.88168
H         -1.44970       -1.42079        2.96298
H         -1.42829        0.34278        2.95911
H         -2.96932       -0.52582        2.72603
H         -2.25603        1.08933       -0.91704
H         -1.56406        1.85023        0.50470
H         -3.69551        1.54185        1.75909
H         -4.37033        0.60019        0.38830
H         -0.13787       -2.43099       -0.65443
H          0.79456       -1.86648        1.19751
H          4.62908       -1.09291        1.79493
H          2.90976       -1.52323        1.89975
H          3.58587       -0.31100        2.99933
H          3.88350        1.11572        1.07742
H          0.14902        2.06313        1.92351
H          1.84952        2.47536        2.23948
H          1.13596        0.99688        2.92694
H          2.54485        1.52297       -1.48008
H          2.85402        2.65330       -0.14518
H          0.25376        2.31080       -1.70792
H          0.36692        3.25411       -0.18043
H          1.21056       -3.84766       -0.93295
H          0.70461       -2.87046       -2.38024
H          2.45451       -1.26495       -1.92605
H          2.97717       -2.22515       -0.47720
