46
1407.log
C          5.46174       -1.44816       -0.37581
C          3.99467       -1.29821        0.00784
C          3.44744        0.03066       -0.49616
P          1.63790        0.33794       -0.26959
Br         1.66390        2.33672       -1.23881
C          1.36383        0.99859        1.46300
C          2.54192        1.43627        2.26585
O          0.21575        1.11904        1.81955
Rh         0.05262       -1.25868       -0.58009
Cl         1.20863       -1.74557        1.51735
C         -5.00491       -1.08237       -1.95547
C         -3.62792       -0.52524       -1.61566
C         -3.36459       -0.59449       -0.11534
P         -1.65904       -0.03226        0.37833
Br        -1.87456        2.04885       -0.20331
C         -2.12523        0.09419        2.21166
C         -1.80382       -1.11434        3.01572
O         -2.69075        1.07525        2.59182
C          0.20795       -3.39523       -1.19446
C         -1.04385       -3.06129       -0.58661
H          5.58188       -1.41629       -1.45669
H          6.05590       -0.64676        0.05837
H          5.85017       -2.39689       -0.01441
H          3.89321       -1.36756        1.09209
H          3.42160       -2.12132       -0.42745
H          3.99493        0.86840       -0.05063
H          3.59346        0.08717       -1.58315
H          3.04865        2.24752        1.74121
H          3.23826        0.60826        2.38661
H          2.21137        1.78807        3.24101
H          1.08175       -2.13282       -1.31486
H         -0.47785       -0.83245       -1.92851
H         -5.08654       -2.12576       -1.65538
H         -5.18269       -1.01821       -3.02581
H         -5.78141       -0.51696       -1.44509
H         -2.86145       -1.08988       -2.15331
H         -3.56746        0.51305       -1.94974
H         -4.08787        0.03529        0.41696
H         -3.48441       -1.62382        0.23904
H         -0.71809       -1.19786        3.09191
H         -2.16259       -2.00724        2.50260
H         -2.23759       -1.04549        4.01080
H          0.20576       -3.64347       -2.25135
H          0.90426       -3.99180       -0.61090
H         -1.21514       -3.44050        0.41916
H         -1.92614       -3.09415       -1.21844
