44
1413.log
C          0.65116       -4.16094       -0.45829
C          0.07201       -2.91797       -1.11465
O          0.06252       -1.76560       -0.27081
P          1.26642       -0.82217        0.24194
C          2.02559       -1.76051        1.63933
C          2.58740       -1.06068       -1.03873
Br         4.20660       -0.27262       -0.35268
Rh         0.53844        1.31199        0.47596
Cl         0.50081        1.26488       -1.92798
C         -1.92202       -2.39924        2.62656
C         -1.75745       -0.89292        2.51655
O         -2.23049       -0.48725        1.24226
P         -1.67058        0.77697        0.42191
C         -2.88867        2.08161        0.87487
C         -2.31919        0.27222       -1.22179
Br        -4.09895       -0.44799       -1.07661
C          1.60383        3.27558        0.38611
C          0.18017        3.38988        0.46240
H          0.18484       -4.32939        0.50932
H          0.45490       -5.02111       -1.09335
H          1.72577       -4.07560       -0.31795
H          0.59605       -2.69348       -2.04943
H         -0.98530       -3.08672       -1.34468
H          1.22743       -2.10242        2.29473
H          2.67225       -1.08982        2.20099
H          2.60704       -2.61648        1.29909
H          2.32501       -0.53117       -1.95600
H          2.79920       -2.11282       -1.23583
H          1.99978        1.78662        0.47447
H          0.56608        1.30259        1.99317
H         -2.96780       -2.66715        2.50052
H         -1.34541       -2.88765        1.84569
H         -1.57981       -2.74155        3.59945
H         -2.34340       -0.38720        3.29225
H         -0.70418       -0.60179        2.62643
H         -2.82164        2.91711        0.18174
H         -2.65804        2.43961        1.87743
H         -3.89593        1.66441        0.86496
H         -1.68874       -0.49802       -1.66133
H         -2.35728        1.13467       -1.88666
H          2.18776        3.60425        1.24044
H          2.07286        3.49171       -0.56982
H         -0.33282        3.71339       -0.44039
H         -0.24101        3.80567        1.37397
