50
1416.log
C         -0.08201        4.20514        0.20313
C          1.01341        3.14876        0.27794
C          0.67043        1.93507       -0.52290
O         -0.28758        1.82888       -1.25603
P          1.70071        0.38208       -0.35911
C          2.54014        0.37427        1.30781
O          2.26486        1.11252        2.21978
C          3.16172        0.65464       -1.46031
C          3.93932        1.94040       -1.20923
Rh         0.53175       -1.51329       -0.65985
Cl         1.36026       -1.77879        1.62258
C         -4.09713        1.36695       -2.23107
C         -2.99258        0.44675       -1.73471
C         -2.45149        0.84613       -0.40502
O         -2.72723        1.81479        0.24308
P         -1.25412       -0.41069        0.33915
C         -0.96811        1.06307        2.43321
O         -0.46937        0.72243        1.29741
C         -2.38673       -1.19559        1.57575
C         -3.65111       -0.43259        1.95074
C          0.39491       -3.70862       -1.08046
C         -0.79522       -3.30564       -0.51324
H         -0.19288        4.56515       -0.81714
H          0.15988        5.04495        0.84924
H         -1.03467        3.78240        0.51484
H          1.18620        2.82333        1.31018
H          1.96632        3.54880       -0.07758
H          3.44956       -0.25342        1.30066
H          2.79836        0.60340       -2.49016
H          3.80056       -0.21954       -1.29154
H          4.89972        1.89403       -1.71966
H          4.12623        2.08388       -0.14547
H          3.40039        2.80341       -1.59340
H          1.83028       -1.99420       -1.25527
H          0.10793       -1.20445       -2.07362
H         -4.93907        1.35922       -1.54248
H         -3.72416        2.38517       -2.29929
H         -4.44250        1.05143       -3.21203
H         -3.33078       -0.59257       -1.65603
H         -2.13897        0.45210       -2.41926
H         -0.32393        1.86727        2.84391
H         -2.65209       -2.18057        1.18728
H         -1.75263       -1.32255        2.46253
H         -3.40883        0.56785        2.29972
H         -4.15665       -0.96432        2.75476
H         -4.33562       -0.35795        1.10781
H          0.45846       -3.89774       -2.14574
H          1.13206       -4.21995       -0.47069
H         -0.97246       -3.52594        0.53449
H         -1.68112       -3.19371       -1.13095
