38
1418.log
C         -2.88764       -2.66148        1.10761
C         -1.93703       -1.50815        1.41193
C         -0.63119       -2.03469        1.99443
P         -1.55315       -0.46832       -0.09353
O         -1.24466       -1.53556       -1.23541
Br        -3.64250        0.10843       -0.61684
Rh        -0.11026        1.29444       -0.19636
Cl         0.05395        1.32078        2.17618
C          3.06912       -0.36082        1.96682
C          3.33093        0.30533        0.62240
C          4.60468       -0.22126       -0.02717
P          1.85465        0.15016       -0.49520
O          2.58523        0.57128       -1.86178
Br         1.83825       -2.05071       -0.74831
C         -0.35867        3.51717       -0.08103
C          0.99355        3.10065       -0.25039
H         -3.80034       -2.33513        0.61062
H         -2.39799       -3.42629        0.50288
H         -3.17693       -3.13149        2.04572
H         -2.39873       -0.81885        2.12712
H          0.03962       -1.21232        2.23274
H         -0.83349       -2.57822        2.91524
H         -0.13618       -2.71159        1.29880
H         -1.71274       -2.37986       -1.19364
H         -1.29090        2.25415       -0.04144
H         -0.29521        1.31041       -1.71174
H          2.95682       -1.43915        1.85531
H          2.17052        0.04426        2.42923
H          3.90619       -0.17730        2.63795
H          3.42377        1.38892        0.77294
H          4.79500        0.26456       -0.98156
H          5.44937       -0.02483        0.63082
H          4.54562       -1.29698       -0.18716
H          1.97242        0.78035       -2.57356
H         -0.85303        4.01090       -0.91227
H         -0.64849        3.89808        0.89353
H          1.65008        3.20285        0.60947
H          1.47814        3.32028       -1.19917
