48
1428.log
C         -6.11153       -1.86843       -0.10224
C         -5.13214       -0.77930       -0.51946
C         -3.70559       -1.12378       -0.09678
N         -2.78563       -0.06325       -0.49008
P         -1.54111        0.48056        0.47576
C         -2.44405        1.28039        1.85396
C         -1.00385       -0.98229        1.35887
N         -0.60822       -1.93608        1.85956
Rh         0.28678        1.44583       -0.43888
Cl         0.94241        1.25873        1.86232
C          4.58294       -3.10410        0.27782
C          4.17627       -2.06677        1.31693
C          3.33506       -0.94913        0.70796
N          2.08477       -1.50807        0.18857
P          1.21798       -0.56624       -0.89202
C          2.23288       -0.76007       -2.40681
C         -0.04819       -1.75489       -1.30090
N         -0.92918       -2.42398       -1.60188
C          1.06168        3.53762       -0.48746
C          2.00167        2.55451       -0.94879
H         -5.83915       -2.81810       -0.55643
H         -7.12032       -1.61278       -0.41588
H         -6.10800       -1.99305        0.97828
H         -5.15952       -0.65418       -1.60377
H         -5.41692        0.17284       -0.06728
H         -3.65849       -1.23947        0.98969
H         -3.40253       -2.07737       -0.54402
H         -2.56149       -0.08179       -1.47692
H         -3.19389        0.60194        2.26139
H         -2.93271        2.17359        1.46263
H         -1.73762        1.55970        2.63399
H         -0.25814        2.86526       -0.15864
H         -0.24215        1.52446       -1.86252
H          5.16311       -3.89845        0.74037
H          3.69992       -3.54205       -0.18032
H          5.18794       -2.64594       -0.50210
H          3.60102       -2.54845        2.11008
H          5.06591       -1.62382        1.76842
H          3.87357       -0.49382       -0.12893
H          3.14537       -0.17536        1.46041
H          1.49751       -1.81961        0.96337
H          1.61910       -0.49921       -3.26758
H          2.57342       -1.79246       -2.47825
H          3.08676       -0.08543       -2.37278
H          0.67415        4.24263       -1.21723
H          1.25100        3.98275        0.48590
H          2.84622        2.34360       -0.29604
H          2.26395        2.57625       -2.00375
