40
1429.log
C         -4.19666       -1.83653       -0.73612
C         -3.32182       -0.60149       -0.81217
Cl        -4.14206        0.78101       -0.03921
P         -1.68009       -0.73696        0.06838
C         -2.13639       -1.34905        1.72116
C         -1.14261       -2.27276       -0.78663
O         -0.77279       -3.27732       -0.24375
Rh        -0.25921        1.02056       -0.22758
Cl         0.20674        0.99600        2.10227
C          1.85085       -1.95796        1.52459
C          2.61792       -0.85326        0.83071
Cl         4.18442       -1.46128        0.22458
P          1.70281       -0.10978       -0.60137
C          1.87144       -1.36096       -1.93189
C          2.99881        1.06108       -1.19195
O          3.78490        1.63142       -0.49404
C         -0.59671        3.22893       -0.00786
C          0.74399        2.90196       -0.34725
H         -4.42163       -2.09547        0.29568
H         -5.13659       -1.66029       -1.25615
H         -3.68994       -2.67906       -1.20511
H         -3.13249       -0.30697       -1.84954
H         -1.39253       -0.98785        2.43221
H         -3.10532       -0.93711        2.00351
H         -2.15200       -2.43928        1.71553
H         -1.13214       -2.16958       -1.89383
H         -1.47661        1.89349        0.05516
H         -0.55459        1.05010       -1.72513
H          0.93531       -1.53556        1.93688
H          2.44012       -2.37203        2.33993
H          1.59358       -2.76126        0.83636
H          2.84579       -0.03399        1.52204
H          1.39736       -2.29112       -1.62493
H          2.92287       -1.54692       -2.14695
H          1.36958       -0.98149       -2.82144
H          2.95683        1.23283       -2.29052
H         -1.20735        3.72943       -0.75350
H         -0.79609        3.54059        1.01345
H          1.49923        2.99472        0.42846
H          1.09562        3.17263       -1.33933
