46
143.log
C          4.25673       -0.60368       -0.47487
C          3.78587        0.56917        0.39399
C          4.96214        1.44043        0.82589
C          2.81804        1.36435       -0.43682
O          3.11178        2.21437       -1.23044
P          0.99201        1.00759       -0.17977
C          0.81231        1.82179        1.44976
F          0.45240        2.25570       -1.06639
Rh        -0.01045       -1.00139       -0.57219
Cl         1.26187       -1.59211        1.35822
C         -3.88500        2.76342       -0.93421
C         -3.09722        1.45995       -0.87789
C         -3.83435        0.30905       -1.56432
C         -2.79198        1.06604        0.53471
O         -3.12679        1.65701        1.52500
P         -1.75220       -0.48690        0.78682
C         -3.05198       -1.69040        1.25590
F         -1.34410       -0.11818        2.30026
C          0.64130       -2.89705       -1.55038
C         -0.61232       -2.99891       -0.86499
H          3.42283       -1.26614       -0.69384
H          4.68318       -0.24223       -1.40818
H          5.01119       -1.17177        0.06347
H          3.26327        0.16070        1.26410
H          4.62426        2.25103        1.46773
H          5.44725        1.87168       -0.04650
H          5.68665        0.84347        1.37366
H         -0.23230        2.10534        1.58248
H          1.09571        1.12979        2.23794
H          1.43700        2.71451        1.47647
H          1.12641       -1.44568       -1.50238
H         -0.75621       -0.55258       -1.81404
H         -4.05867        3.05376       -1.96675
H         -4.84403        2.64590       -0.43482
H         -3.33642        3.55764       -0.43485
H         -2.12468        1.58753       -1.37253
H         -4.03783        0.57025       -2.59959
H         -4.78032        0.11016       -1.06472
H         -3.22249       -0.59213       -1.55342
H         -3.76823       -1.19075        1.90785
H         -2.55993       -2.49254        1.80621
H         -3.54616       -2.09946        0.38040
H          0.63435       -2.98531       -2.63283
H          1.50078       -3.36766       -1.08019
H         -0.61761       -3.56021        0.06582
H         -1.50244       -3.15095       -1.47050
