40
1430.log
C         -4.19663       -1.83635       -0.73657
C         -3.32195       -0.60116       -0.81202
Cl        -4.14224        0.78086       -0.03823
P         -1.68014       -0.73688        0.06835
C         -2.13624       -1.34914        1.72114
C         -1.14288       -2.27257       -0.78692
O         -0.77314       -3.27726       -0.24423
Rh        -0.25916        1.02054       -0.22776
Cl         0.20687        0.99628        2.10214
C          1.85060       -1.95827        1.52441
C          2.61778       -0.85344        0.83086
Cl         4.18442       -1.46132        0.22498
P          1.70289       -0.10983       -0.60132
C          1.87162       -1.36098       -1.93185
C          2.99904        1.06097       -1.19169
O          3.78497        1.63137       -0.49364
C         -0.59664        3.22895       -0.00839
C          0.74406        2.90192       -0.34772
H         -4.42105       -2.09623        0.29512
H         -5.13685       -1.65975       -1.25598
H         -3.69007       -2.67842       -1.20655
H         -3.13274       -0.30606       -1.84925
H         -1.39364       -0.98587        2.43249
H         -3.10633       -0.93947        2.00272
H         -2.14919       -2.43940        1.71595
H         -1.13242       -2.16918       -1.89409
H         -1.47655        1.89348        0.05483
H         -0.55453        1.04984       -1.72531
H          0.93475       -1.53606        1.93621
H          2.43954       -2.37216        2.34008
H          1.59387       -2.76166        0.83609
H          2.84547       -0.03425        1.52237
H          1.39714       -2.29102       -1.62512
H          2.92306       -1.54724       -2.14657
H          1.37016       -0.98130       -2.82155
H          2.95734        1.23264       -2.29028
H         -1.20728        3.72933       -0.75411
H         -0.79602        3.54077        1.01286
H          1.49930        2.99482        0.42798
H          1.09570        3.17242       -1.33984
