46
1448.log
C         -2.57713        0.15712       -2.73645
C         -2.21090       -1.13361       -2.02039
P         -1.62863       -0.84680       -0.29024
C         -1.35794       -2.58371        0.23642
C         -3.23426       -0.60629        0.61273
C         -3.97031        0.62162        0.21516
O         -5.11568        0.65127       -0.14629
Rh        -0.01773        0.69629        0.22932
Cl        -0.30877       -0.27492        2.40446
C          3.48812       -2.70447        0.74207
C          2.35847       -1.74118        1.07618
P          1.81819       -0.55840       -0.23308
C          1.80639       -1.58727       -1.75923
C          3.42209        0.35563       -0.51445
C          3.25256        1.33750       -1.62287
O          3.23311        2.52968       -1.49567
C         -0.18277        2.72121        1.19380
C          1.15761        2.25188        1.07078
H         -3.45720        0.61181       -2.28805
H         -2.79077       -0.03560       -3.78588
H         -1.75356        0.86716       -2.67289
H         -3.06575       -1.81562       -1.99149
H         -1.39150       -1.63156       -2.54817
H         -2.22604       -3.19094       -0.01858
H         -1.20381       -2.58998        1.31429
H         -0.47516       -2.99329       -0.25073
H         -3.86869       -1.48776        0.48527
H         -2.92643       -0.51282        1.66171
H         -3.37125        1.55246        0.28735
H         -1.14426        1.68138        0.55004
H          0.09913        1.29711       -1.15762
H          4.40763       -2.17907        0.49515
H          3.22227       -3.35572       -0.08706
H          3.68884       -3.33188        1.60834
H          1.45993       -2.29590        1.36063
H          2.62118       -1.12258        1.94027
H          2.80409       -1.94759       -2.00433
H          1.13849       -2.43555       -1.62160
H          1.42343       -0.98155       -2.57870
H          4.18208       -0.38026       -0.78568
H          3.69185        0.86686        0.41237
H          3.14045        0.87170       -2.62155
H         -0.48162        3.56640        0.58088
H         -0.62891        2.71673        2.18491
H          1.64945        1.92550        1.98443
H          1.80834        2.77115        0.37463
