48
1450.log
C          2.68452        0.36427       -2.93934
O          2.66668        1.00554       -1.67971
P          2.10383        0.26576       -0.34397
C          3.59430       -0.68851        0.18470
C          2.31239        1.78688        0.70686
C          1.51926        2.94831        0.11535
C          1.98889        1.49640        2.14587
O          1.11738        2.03954        2.77201
Rh         0.25438       -1.07408       -0.41266
Cl         0.77678       -1.09451        1.93032
C         -2.69026       -0.96906        2.18307
O         -2.77378       -0.54882        0.82446
P         -1.57308        0.24708        0.09733
C         -1.53330        1.78366        1.11300
C         -2.59089        0.77776       -1.38738
C         -1.76080        1.67551       -2.29239
C         -3.83371        1.43402       -0.89724
O         -4.88316        0.88617       -0.70402
C          0.23905       -3.33066       -0.53087
C         -1.04838       -2.75914       -0.33543
H          3.59853       -0.22107       -3.06278
H          2.65276        1.14698       -3.69772
H          1.81759       -0.29474       -3.05663
H          3.78527       -1.47044       -0.55132
H          3.41485       -1.15552        1.14900
H          4.45998       -0.02880        0.23727
H          3.38923        1.99066        0.66291
H          0.69174        2.56973       -0.48329
H          2.15148        3.55321       -0.52837
H          1.12405        3.57057        0.91662
H          2.68786        0.79250        2.62772
H          1.28543       -2.17119       -0.70495
H         -0.00304       -0.95326       -1.89778
H         -3.37961       -1.80622        2.29325
H         -1.67941       -1.28064        2.45377
H         -2.99906       -0.16081        2.84876
H         -2.52855        1.93381        1.53003
H         -0.81107        1.67501        1.92139
H         -1.25239        2.64353        0.51432
H         -2.84929       -0.16303       -1.88380
H         -2.22625        1.76564       -3.27188
H         -0.76274        1.25495       -2.42038
H         -1.66550        2.67406       -1.86889
H         -3.71745        2.52061       -0.70143
H          0.45104       -3.80733       -1.48344
H          0.70679       -3.81802        0.32014
H         -1.49673       -2.87837        0.64448
H         -1.76231       -2.81027       -1.15197
