34
1454.log
C         -0.61142       -2.60959        0.66733
P         -0.96675       -0.81547        0.58683
Br        -2.75338       -1.37464       -0.99124
C         -2.34445       -0.47086        1.79593
C         -3.28258        0.47374        1.10608
O         -2.93007        1.56154        0.71952
Rh        -0.04653        0.93723       -0.63630
Cl         0.09699        1.97738        1.56560
C          3.59777        1.01157       -0.85783
P          2.07500        0.25390       -0.16733
Br         2.65788       -1.84692       -0.37292
C          2.35954        0.52779        1.64960
C          0.96902        0.48939        2.27721
O          0.30858       -0.62190        1.98237
C         -0.84739        2.73564       -1.66070
C          0.57263        2.69970       -1.65425
H         -0.28976       -2.94155       -0.32048
H         -1.53073       -3.13715        0.92017
H          0.16217       -2.82266        1.39893
H         -1.93354       -0.00354        2.69269
H         -2.82405       -1.41669        2.05509
H         -4.32313        0.13458        0.98610
H         -1.45122        1.41026       -0.93172
H         -0.10073        0.15853       -1.91509
H          3.54274        2.09332       -0.74401
H          3.66281        0.77395       -1.91969
H          4.48383        0.63014       -0.34858
H          2.97529       -0.26595        2.08232
H          2.84250        1.49454        1.81157
H          0.98451        0.69407        3.35820
H         -1.36175        2.56528       -2.60040
H         -1.35541        3.43749       -1.00577
H          1.09359        3.40175       -1.00549
H          1.08015        2.51982       -2.59764
