40
1458.log
C          4.56165        2.57888        0.00591
C          3.21151        1.88940        0.15654
C          3.36000        0.38691        0.36675
P          1.68629       -0.40286        0.52328
O          1.17981        0.16028        1.93747
C          2.30333       -2.03044        0.93236
N          2.76879       -3.04608        1.18412
Rh         0.03913       -0.35924       -1.01346
Cl        -0.55365       -2.09959        0.52993
C         -4.22845       -0.40436        2.49375
C         -3.37316       -0.13326        1.26286
C         -2.19564        0.77332        1.60462
P         -1.18209        1.15835        0.13147
O         -0.43066        2.46187        0.70132
C         -2.46337        1.93203       -0.85991
N         -3.25278        2.41846       -1.53191
C         -0.44806       -1.69498       -2.74630
C         -1.51115       -0.81067       -2.36726
H          5.16956        2.43043        0.89588
H          4.42863        3.64741       -0.14424
H          5.10081        2.17635       -0.84832
H          2.61353        2.05629       -0.74486
H          2.67507        2.32184        1.00707
H          3.94744        0.17402        1.26761
H          3.86950       -0.06709       -0.48549
H          1.74853       -0.04746        2.68891
H          0.75813       -1.40905       -1.89362
H          0.56856        0.74557       -1.92090
H         -4.62237        0.52492        2.90090
H         -5.06523       -1.04921        2.23769
H         -3.63921       -0.89759        3.26348
H         -2.99113       -1.07927        0.87318
H         -3.98511        0.33437        0.48597
H         -2.52816        1.73245        2.01545
H         -1.53949        0.28737        2.33117
H          0.36318        2.68529        0.20654
H          0.02454       -1.52777       -3.70970
H         -0.56609       -2.74667       -2.49825
H         -2.36854       -1.25473       -1.86671
H         -1.77893       -0.01585       -3.05800
