50
146.log
C          3.61712       -0.42189       -1.73069
C          3.38885        0.38921       -0.46342
P          1.76364       -0.00459        0.34650
C          2.00787        0.98078        1.88486
O          2.66483        1.98223        1.96101
N          1.88163       -1.53312        1.05840
C          1.32171       -2.68533        0.37491
C          3.08875       -1.85634        1.79960
Rh        -0.16585        0.65277       -0.69020
Cl         0.23070       -0.93603       -2.44607
C         -1.49148        0.21408        3.22293
C         -1.33351       -0.95498        2.25996
P         -1.76077       -0.43343        0.52126
C         -1.91921        3.04040        1.05960
O         -1.57532        4.10876        0.89657
N         -2.78235       -1.59804       -0.13708
C         -2.29079       -2.66723       -0.98488
C         -3.94620       -1.99021        0.63362
C         -0.52909        2.12357       -2.33677
C         -1.71068        1.45850       -1.87219
H          3.73008       -1.47918       -1.49695
H          4.51720       -0.08582       -2.24227
H          2.77205       -0.32249       -2.40888
H          3.36149        1.46076       -0.68181
H          4.18749        0.21684        0.26545
H          1.43776        0.59354        2.75654
H          0.95732       -3.40257        1.11531
H          2.05362       -3.18898       -0.26360
H          0.49058       -2.35918       -0.24778
H          2.84687       -2.61555        2.54750
H          3.45802       -0.96829        2.31346
H          3.88437       -2.25302        1.15908
H          0.67290        1.62052       -1.55458
H         -0.32154        1.73827        0.35998
H         -0.94214        1.07991        2.85826
H         -1.12013       -0.04744        4.21233
H         -2.53800        0.49772        3.31161
H         -1.99087       -1.77869        2.55241
H         -0.30333       -1.31921        2.26808
H         -2.79581        0.42371        0.88536
H         -1.45539       -2.30512       -1.58093
H         -1.97338       -3.54634       -0.41219
H         -3.08893       -2.97222       -1.66553
H         -4.74513       -2.27382       -0.05560
H         -3.75107       -2.84472        1.29208
H         -4.28874       -1.15014        1.23774
H         -0.42504        3.18274       -2.11609
H         -0.16499        1.84983       -3.32358
H         -2.15510        0.71606       -2.52949
H         -2.44287        2.04771       -1.32509
