36
1463.log
C          3.41880       -1.07243        0.02103
P          1.91800       -0.04428        0.23094
C          2.13739        0.49789        1.95953
C          2.52907        1.50257       -0.63096
F          3.74146        1.89259       -0.15099
Cl         1.34309        2.77345       -0.31794
Rh         0.02583       -0.99363       -0.59937
Cl         0.47397       -2.38370        1.30933
C         -2.76391       -1.10880        1.50355
P         -1.60502        0.00440        0.62749
C         -1.28587        1.22682        1.94432
C         -2.85325        0.97832       -0.36698
F         -3.89776        1.35993        0.41981
Cl        -2.04552        2.41844       -0.99652
C         -0.14334       -2.78727       -1.92649
C         -1.39582       -2.34808       -1.39619
H          3.56750       -1.30364       -1.03421
H          4.29327       -0.55349        0.41315
H          3.26200       -1.99995        0.57086
H          1.52027        1.36804        2.17058
H          1.84578       -0.32901        2.60579
H          3.18741        0.74419        2.12083
H          2.62300        1.38439       -1.71648
H          0.97504       -1.81365       -1.48094
H         -0.16218       -0.03738       -1.75704
H         -3.43824       -0.52923        2.13280
H         -3.34027       -1.69092        0.78591
H         -2.17184       -1.78802        2.11595
H         -2.23338        1.62665        2.30723
H         -0.76863        0.71446        2.75527
H         -0.66609        2.03526        1.55992
H         -3.26724        0.41670       -1.21215
H          0.02207       -2.67980       -2.99451
H          0.28305       -3.69454       -1.50697
H         -1.83884       -2.97272       -0.62533
H         -2.11757       -1.93197       -2.09422
