44
1477.log
C          3.96296       -0.97081       -1.21238
C          3.56100       -0.10761       -0.02509
P          1.88002        0.63489       -0.22426
C          2.16265        1.73044       -1.67090
C          1.95114        1.86356        1.18493
O          0.67579        2.22089        1.62345
Rh         0.09109       -0.79780       -0.20121
Cl         0.14032       -0.69927        2.24666
C         -2.76123       -0.04504       -2.78872
C         -3.09211        0.25653       -1.33507
P         -1.62156        0.74184       -0.32645
C         -1.34914        2.45505       -0.92450
C         -2.50910        1.11824        1.27070
O         -2.84967       -0.05253        1.94855
C         -0.01583       -3.02142        0.01038
C         -1.29589       -2.39119       -0.10161
H          3.18378       -1.70094       -1.43039
H          4.11495       -0.36171       -2.10023
H          4.88709       -1.50528       -1.00107
H          3.53282       -0.71225        0.88693
H          4.28019        0.70411        0.12582
H          3.15091        2.18507       -1.60788
H          1.40345        2.50825       -1.68209
H          2.07897        1.14657       -2.58492
H          2.45065        2.77581        0.84069
H          2.54084        1.41735        1.99960
H          0.30138        1.41158        2.03334
H          1.08898       -1.96180       -0.09545
H          0.13219       -0.88458       -1.70700
H         -1.97806       -0.79763       -2.85324
H         -2.41275        0.85018       -3.29915
H         -3.64200       -0.41506       -3.31035
H         -3.52719       -0.62176       -0.85111
H         -3.82025        1.07123       -1.27414
H         -0.62077        2.93695       -0.27509
H         -0.97314        2.43151       -1.94497
H         -2.28751        3.00766       -0.89322
H         -3.44481        1.63505        1.02721
H         -1.88654        1.78594        1.88202
H         -2.01300       -0.44377        2.27050
H          0.31535       -3.64443       -0.81604
H          0.26306       -3.41763        0.98335
H         -1.91755       -2.36125        0.78882
H         -1.85844       -2.57514       -1.01246
