46
1480.log
C          0.89393        1.15270        2.57258
O          1.50104        1.45132        1.32225
P          1.68864        0.40168        0.11825
C          3.03044       -0.62914        0.71279
N          3.89056       -1.30261        1.05713
C          2.68185        1.52199       -0.97900
C          3.86579        2.14006       -0.24548
C          3.12668        0.71290       -2.19087
Rh        -0.02233       -0.90757       -0.60390
Cl         0.41766       -1.82096        1.58156
C         -2.83172       -1.00254        2.04064
O         -2.45199        0.26234        1.50261
P         -1.74109        0.41006        0.06568
C         -3.15383        0.21473       -1.02804
N         -4.04586        0.02599       -1.72184
C         -1.64574        2.26158        0.02861
C         -1.28627        2.69139       -1.38902
C         -2.94842        2.90151        0.49508
C         -0.01952       -2.98439       -1.44895
C         -1.32509       -2.49436       -1.12621
H          1.44963        0.37766        3.10273
H         -0.13815        0.81950        2.44413
H          0.91458        2.08037        3.14535
H          1.99880        2.31738       -1.30060
H          4.40728        2.80532       -0.91614
H          3.53283        2.71557        0.61466
H          4.55128        1.36698        0.09774
H          3.65109        1.34821       -2.90188
H          2.26635        0.26874       -2.69253
H          3.79979       -0.08758       -1.88434
H          1.01682       -1.90107       -1.15857
H         -0.15486       -0.29956       -1.98804
H         -1.96845       -1.66846        2.11281
H         -3.61138       -1.46410        1.43091
H         -3.22047       -0.79896        3.03775
H         -0.83308        2.54763        0.70707
H         -2.09822        2.45555       -2.07553
H         -1.10465        3.76395       -1.42527
H         -0.38958        2.17396       -1.73077
H         -3.18196        2.61293        1.51655
H         -2.85828        3.98574        0.45481
H         -3.77382        2.60126       -0.14841
H          0.22283       -3.12154       -2.49858
H          0.39805       -3.75149       -0.80201
H         -1.81553       -2.93580       -0.26172
H         -2.00320       -2.28294       -1.94877
