48
1486.log
C          3.18372        2.50926        0.34013
C          2.00645        2.01452       -0.49189
C          2.20963        2.20335       -1.99372
P          1.68968        0.21413       -0.20562
C          1.71628       -0.19553        1.60339
O          2.37120        0.12978        2.52821
O          0.06682        1.32660        1.71612
C          3.38101       -0.51352       -0.53946
O          4.17671       -0.13621       -1.34868
O          3.55890       -1.56073        0.25759
Rh         0.01502       -1.25032       -0.69091
Cl         0.60111       -1.60273        1.69319
C         -3.52592        0.23141       -2.16744
C         -2.63026        1.21337       -1.41849
C         -1.71605        1.94218       -2.39851
P         -1.61783        0.38341       -0.10143
C         -1.21179        1.83493        1.16154
O         -2.11745        1.98755        2.00035
O         -0.86539        2.95542        0.38247
C         -2.96271       -0.18791        1.03855
O         -4.13928       -0.02575        0.89092
O         -2.41116       -0.79932        2.08387
C         -0.68719       -3.31045       -1.04896
C         -1.76527       -2.54407       -0.62573
H          4.11335        2.03929        0.02480
H          3.28648        3.58451        0.20753
H          3.02508        2.30790        1.39748
H          1.08828        2.52288       -0.18294
H          2.21976        3.26465       -2.23151
H          3.15128        1.76511       -2.31609
H          1.39715        1.73355       -2.54785
H          0.07954        1.59418        2.64698
H          4.40975       -2.00663        0.09378
H          1.17077       -2.12244       -1.14943
H         -0.16334       -0.92332       -2.13638
H         -4.14485        0.77693       -2.87803
H         -4.18379       -0.29786       -1.48284
H         -2.92179       -0.48289       -2.72609
H         -3.25518        1.93327       -0.87344
H         -2.31087        2.48693       -3.12927
H         -1.07254        2.64523       -1.87713
H         -1.09297        1.22225       -2.92950
H         -1.37769        3.69385        0.73712
H         -3.05632       -0.91487        2.80184
H         -0.60364       -3.59412       -2.09225
H         -0.20344       -3.98841       -0.35172
H         -2.10723       -2.64080        0.39972
H         -2.53085       -2.25560       -1.33535
