50
1487.log
C          3.06752        1.75196       -2.24757
N          2.08602        2.34657       -1.36654
C          2.23298        2.04849        0.02384
C          1.25138        2.89052        0.82563
P          1.90987        0.21037        0.43694
C          2.13302        0.14293        2.25694
N          4.59573       -0.30251        0.31234
O          3.33313       -0.51709       -0.09260
O          4.76438        0.56098        1.12437
Rh         0.22689       -0.93794       -0.57632
Cl         0.11774       -2.26174        1.40717
C         -4.21301        3.07407        0.43248
N         -3.72197        1.71660        0.28558
C         -2.47195        1.58900       -0.43604
C         -2.59511        1.48856       -1.95072
P         -1.58062        0.12117        0.33444
C         -1.62207        0.59444        2.09482
N         -3.01940       -0.96075        0.38771
O         -3.34694       -1.44620        1.43721
O         -3.58156       -1.13150       -0.67603
C          0.29554       -2.81855       -1.82949
C         -1.02126       -2.36378       -1.57194
H          4.06496        2.03463       -1.90975
H          2.91387        2.14684       -3.25026
H          3.00541        0.65571       -2.28761
H          1.14754        2.10511       -1.67762
H          3.26079        2.28342        0.32047
H          1.35014        3.93298        0.53115
H          0.23341        2.56452        0.60921
H          1.43796        2.80823        1.89271
H          1.17814        0.34451        2.73251
H          2.42313       -0.87726        2.50786
H          2.89045        0.84614        2.59841
H          1.33882       -1.79838       -1.16217
H          0.27631       -0.06432       -1.81878
H         -4.40377        3.58004       -0.52238
H         -3.48036        3.65597        0.99255
H         -5.14029        3.04577        1.00173
H         -4.43378        1.14674       -0.16260
H         -1.84351        2.45209       -0.17640
H         -3.24042        0.65456       -2.21923
H         -3.01511        2.40663       -2.35815
H         -1.61528        1.32422       -2.39448
H         -0.90035        1.38535        2.28542
H         -2.62676        0.93512        2.34529
H         -1.36730       -0.28906        2.68079
H          0.68696       -2.72974       -2.83838
H          0.64153       -3.69637       -1.29205
H         -1.60909       -2.93702       -0.86113
H         -1.60077       -1.94702       -2.39024
