44
1500.log
C         -4.12809       -1.45483        0.82288
C         -3.16460       -0.30778        0.53778
N         -3.69043        0.69053       -0.38325
P         -1.55816       -0.82039       -0.25341
C         -1.07921       -2.29522        0.71468
N         -2.16829       -1.62425       -1.62397
Rh        -0.08976        0.91383       -0.38250
Cl        -0.18811        0.68997        1.99891
C          3.13176       -0.07956        1.86041
C          2.60253       -1.13460        0.89985
N          3.61456       -2.06063        0.40071
P          1.75942       -0.38138       -0.58638
C          3.20117        0.37466       -1.46543
N          1.48644       -1.82351       -1.42469
C         -0.39159        3.10014       -0.12384
C          0.98675        2.72386       -0.22959
H         -3.76886       -2.06744        1.64491
H         -5.10432       -1.05495        1.09966
H         -4.24377       -2.07675       -0.06370
H         -2.89444        0.20228        1.46891
H         -4.42128        1.24350        0.05301
H         -4.09705        0.22479       -1.18865
H         -0.13751       -2.67582        0.32203
H         -1.85562       -3.05184        0.62119
H         -0.94634       -2.00085        1.75309
H         -2.40077       -0.94579       -2.34364
H         -1.44906       -2.23827       -1.99482
H         -1.29688        1.85409       -0.30628
H         -0.13339        1.01326       -1.90022
H          3.89609        0.53436        1.38465
H          3.56503       -0.55214        2.74213
H          2.30971        0.55668        2.18119
H          1.81937       -1.71581        1.39843
H          4.48877       -1.56345        0.26112
H          3.79268       -2.79228        1.07994
H          3.97556       -0.37163       -1.63839
H          3.60107        1.20833       -0.89502
H          2.84186        0.75307       -2.42180
H          2.32654       -2.40088       -1.42244
H          1.17001       -1.64379       -2.37107
H         -0.82130        3.68184       -0.93448
H         -0.75151        3.39524        0.85799
H          1.58206        2.78152        0.67832
H          1.52325        3.04246       -1.11997
