46
1505.log
C         -1.06535        3.04736       -0.47744
P         -0.86365        1.56433        0.57753
C          0.10922        2.25094        1.96739
C         -2.56300        1.54556        1.36142
O         -3.40701        0.99178        0.36288
C         -3.80714       -0.25960        0.52022
O         -3.70334       -0.92074        1.52270
C         -4.44740       -0.79967       -0.75734
O         -4.20902       -0.38376       -1.85223
Rh        -0.21225       -0.32569       -0.62466
Cl         1.68592        1.05103       -1.28396
C          1.28745       -3.20655        0.59670
P          0.71632       -1.53113        1.04553
C         -0.32456       -1.84658        2.51953
C          2.26599       -0.89846        1.84605
O          3.13751       -0.63113        0.76611
C          3.40472        0.66175        0.51186
O          3.18668        1.55957        1.29478
C          4.08284        0.82833       -0.82899
O          4.52584       -0.07738       -1.48932
C         -0.59998       -0.55201       -2.89081
C          0.18762       -1.60005       -2.19918
H         -0.12538        3.22371       -0.99888
H         -1.31834        3.91884        0.12593
H         -1.85144        2.86263       -1.21008
H          1.14819        2.35323        1.65142
H         -0.28097        3.22549        2.25803
H          0.06930        1.57162        2.81795
H         -2.91909        2.55524        1.58207
H         -2.59010        0.92388        2.26217
H         -5.11524       -1.65813       -0.56522
H         -0.89826        0.25392       -2.04078
H         -1.45042       -1.12609       -0.31878
H          1.63811       -3.73760        1.48133
H          2.09967       -3.10816       -0.12251
H          0.46511       -3.75142        0.13775
H         -1.24867       -2.32733        2.20686
H         -0.57873       -0.90094        2.99457
H          0.20428       -2.48220        3.22822
H          2.71977       -1.66828        2.47956
H          2.10021        0.01677        2.42705
H          4.22323        1.89202       -1.08978
H         -1.55709       -0.87998       -3.29343
H         -0.03968        0.03430       -3.61765
H          1.24153       -1.64280       -2.47144
H         -0.26324       -2.59117       -2.18890
