46
1506.log
C         -1.06490        3.04708       -0.47863
P         -0.86335        1.56463        0.57715
C          0.10935        2.25203        1.96673
C         -2.56283        1.54605        1.36074
O         -3.40630        0.99192        0.36194
C         -3.80726       -0.25912        0.52000
O         -3.70483       -0.91940        1.52319
C         -4.44627       -0.80011       -0.75780
O         -4.20800       -0.38398       -1.85264
Rh        -0.21254       -0.32629       -0.62398
Cl         1.68535        1.04976       -1.28533
C          1.28838       -3.20597        0.59893
P          0.71688       -1.53040        1.04668
C         -0.32365       -1.84517        2.52107
C          2.26654       -0.89674        1.84638
O          3.13778       -0.63022        0.76600
C          3.40467        0.66250        0.51055
O          3.18660        1.56097        1.29271
C          4.08246        0.82802       -0.83059
O          4.52557       -0.07819       -1.49017
C         -0.60151       -0.55418       -2.88973
C          0.18640       -1.60180       -2.19781
H         -0.12487        3.22313       -1.00004
H         -1.31796        3.91889        0.12425
H         -1.85090        2.86198       -1.21127
H          1.14822        2.35475        1.65054
H         -0.28129        3.22645        2.25718
H          0.06991        1.57290        2.81746
H         -2.91910        2.55571        1.58120
H         -2.59014        0.92443        2.26152
H         -5.11306       -1.65942       -0.56586
H         -0.89941        0.25233       -2.04008
H         -1.45055       -1.12644       -0.31682
H          1.63922       -3.73634        1.48390
H          2.10054       -3.10786       -0.12039
H          0.46615       -3.75136        0.14039
H         -1.24703       -2.32769        2.20898
H         -0.57924       -0.89922        2.99473
H          0.20602       -2.47904        3.23072
H          2.72060       -1.66587        2.48053
H          2.10072        0.01901        2.42653
H          4.22251        1.89150       -1.09241
H         -1.55881       -0.88237       -3.29169
H         -0.04152        0.03168       -3.61718
H          1.24015       -1.64483       -2.47063
H         -0.26453       -2.59288       -2.18656
