48
1513.log
C          2.07338        2.10695       -2.36858
P          1.54777        1.55223       -0.68394
C          2.90612        2.27504        0.30143
N          0.33873        2.67064       -0.26903
C         -1.05933        2.39871       -0.53198
C         -1.93060        3.21447        0.44131
C         -3.25956        2.67523        0.52687
N         -4.30858        2.22697        0.60294
Rh         1.17245       -0.69470       -0.52538
Cl         2.85089       -0.84445        1.16776
C          0.11293        0.63984        2.51277
P         -0.18553       -0.69321        1.29963
C         -0.05133       -2.14704        2.42552
N         -1.85394       -0.49057        1.06667
C         -2.55057       -1.43807        0.21665
C         -3.68026       -0.73943       -0.55740
C         -4.43647       -1.69461       -1.32126
N         -5.02540       -2.47183       -1.91796
C          2.15977       -2.38613       -1.59560
C          1.16593       -2.80453       -0.65618
H          3.01494        1.62854       -2.63000
H          1.31868        1.81202       -3.09636
H          2.20082        3.19015       -2.39062
H          3.82638        1.74696        0.05971
H          3.01463        3.33713        0.08190
H          2.70068        2.12905        1.35927
H          0.60082        3.62006       -0.52429
H         -1.20948        1.32935       -0.35476
H         -1.35631        2.62829       -1.56404
H         -1.48712        3.17575        1.44013
H         -1.98795        4.26106        0.12881
H          2.21461       -0.82789       -1.64563
H          0.06344       -0.60857       -1.56002
H          1.09607        0.46338        2.94562
H         -0.64372        0.62181        3.29715
H          0.11811        1.60361        2.00930
H          0.99268       -2.29283        2.69104
H         -0.63950       -1.96073        3.32515
H         -0.42447       -3.03934        1.92385
H         -2.37526       -0.27732        1.91105
H         -2.96855       -2.27794        0.78687
H         -1.82090       -1.83618       -0.49570
H         -3.25783        0.00376       -1.23786
H         -4.35286       -0.22137        0.13212
H          1.95719       -2.53854       -2.65195
H          3.19917       -2.54753       -1.32314
H          1.52672       -3.27685        0.25278
H          0.26421       -3.26324       -1.05539
