42
1515.log
C         -1.48237       -1.78195       -2.51531
C         -1.84251       -1.96960       -1.04444
P         -1.62069       -0.40170       -0.10417
C         -2.35394       -0.72167        1.57054
C         -3.58951       -1.43933        1.44772
N         -4.57259       -2.01063        1.33229
N         -3.16572        0.41225       -0.68998
O         -3.42214        1.44793       -0.11730
O         -3.83017       -0.09885       -1.55337
Rh        -0.00862        1.21877       -0.32852
Cl         0.50853        1.04919        2.03622
C          4.32287        0.88445       -0.54867
C          3.41550        0.33491        0.54866
P          1.78244       -0.15645       -0.11622
C          2.26070       -1.46272       -1.37612
C          3.35332       -2.27762       -0.93147
N          4.23044       -2.91281       -0.56612
N          1.28075       -1.35448        1.13287
O          0.15010       -1.80831        0.97282
O          2.06953       -1.75145        1.94832
C         -0.06253        3.45158       -0.24764
C          1.23622        2.94468       -0.49632
H         -0.52736       -1.26745       -2.62290
H         -1.42061       -2.74707       -3.01253
H         -2.24287       -1.18857       -3.01683
H         -2.89028       -2.26869       -0.94626
H         -1.21937       -2.73155       -0.57580
H         -1.64273       -1.29716        2.16649
H         -2.52258        0.25287        2.04470
H         -1.15496        2.19813       -0.18653
H         -0.19813        1.21942       -1.82911
H          4.67346        0.08741       -1.20095
H          5.19536        1.35501       -0.10181
H          3.80511        1.62958       -1.15185
H          3.86607       -0.53988        1.02936
H          3.23507        1.09077        1.31784
H          1.38148       -2.08665       -1.57140
H          2.53154       -0.94176       -2.29964
H         -0.58267        3.96543       -1.04863
H         -0.28359        3.83311        0.74468
H          1.96006        3.00121        0.31151
H          1.65845        3.09607       -1.48591
