48
1516.log
C          3.32459        3.70362       -1.07634
C          3.13525        2.48519       -0.18098
C          2.02299        1.59500       -0.72928
P          1.73238        0.05881        0.23058
O          1.98773        0.62391        1.68825
C          1.92237       -0.14516        2.89428
N          3.35615       -0.69029       -0.12176
O          3.50789       -1.13356       -1.23599
O          4.17263       -0.70600        0.77203
Rh         0.06266       -1.31341       -0.51840
Cl        -0.80898       -1.76184        1.68303
C         -5.49010        0.84611        0.98261
C         -4.22192        1.06927        0.16612
C         -3.17198        0.01907        0.52963
P         -1.44689        0.29786       -0.07615
O         -0.76167        1.33222        0.92564
C         -1.36813        2.41921        1.62579
N         -1.84401        1.40886       -1.46289
O         -2.56516        0.96174       -2.32548
O         -1.29688        2.49351       -1.48070
C         -0.11406       -3.44612       -1.14677
C         -1.31629       -2.69173       -1.31793
H          4.09907        4.35180       -0.67427
H          3.61725        3.39941       -2.07859
H          2.39970        4.27130       -1.14759
H          2.87746        2.80801        0.82793
H          4.07291        1.92823       -0.12248
H          2.25041        1.26197       -1.74716
H          1.07829        2.14340       -0.76762
H          1.05113       -0.80132        2.89997
H          2.83370       -0.73306        3.00689
H          1.84725        0.57587        3.70681
H          1.01146       -2.51356       -0.60670
H          0.44735       -0.91122       -1.92277
H         -5.28958        0.94694        2.04737
H         -6.24844        1.57391        0.70579
H         -5.88784       -0.14956        0.80201
H         -4.46359        0.99336       -0.89558
H         -3.84737        2.07953        0.35250
H         -3.06033       -0.07077        1.61571
H         -3.48555       -0.95927        0.16167
H         -2.20919        2.08327        2.23260
H         -1.68569        3.19729        0.92971
H         -0.58918        2.81433        2.27693
H          0.41817       -3.76403       -2.03758
H         -0.09157       -4.17281       -0.33866
H         -2.13361       -2.91230       -0.63586
H         -1.63921       -2.46731       -2.33081
