46
1530.log
C          3.77855        3.12442       -1.56726
C          2.63837        2.37830       -0.88597
C          3.15460        1.21427       -0.04990
P          1.79815        0.20564        0.67376
C          1.25370        1.18429        2.12873
C          2.82445       -1.02746        1.58347
O          3.99076       -1.20658        1.36724
Rh         0.24691       -0.91748       -0.57239
Cl        -0.35381       -1.74875        1.59033
C         -4.57421        1.48501        2.17221
C         -3.61021        1.70875        1.01265
C         -2.55642        0.60645        0.98140
P         -1.44799        0.60039       -0.48083
C         -1.13871        2.36900       -0.88644
C         -2.64523        0.27062       -1.83634
O         -3.72218       -0.23893       -1.70127
C          0.24905       -3.02979       -1.30707
C         -0.99725       -2.35843       -1.51009
H          4.47126        3.52131       -0.82815
H          3.39483        3.95307       -2.15778
H          4.32799        2.45739       -2.22714
H          1.95018        1.98714       -1.63979
H          2.08216        3.07061       -0.24870
H          3.80147        1.56375        0.76077
H          3.73706        0.53102       -0.67609
H          2.12295        1.52237        2.69311
H          0.63185        0.54031        2.74961
H          0.66708        2.04204        1.80365
H          2.26163       -1.61667        2.33213
H          1.28014       -2.04970       -0.71872
H          0.68968       -0.36188       -1.91626
H         -5.31484        2.28052        2.20998
H         -5.09363        0.53714        2.05598
H         -4.03720        1.46806        3.11819
H         -3.13131        2.68353        1.12897
H         -4.17125        1.71037        0.07566
H         -1.93119        0.63333        1.87811
H         -3.03843       -0.37804        0.95895
H         -0.55354        2.83033       -0.09372
H         -0.56459        2.40853       -1.81058
H         -2.07590        2.90767       -1.01393
H         -2.25830        0.55532       -2.83899
H          0.82602       -3.29860       -2.18736
H          0.28879       -3.77371       -0.51559
H         -1.82876       -2.64258       -0.87018
H         -1.29173       -2.14608       -2.53429
