50
1536.log
C          4.13789        1.82638       -0.58277
N          3.00728        0.99612       -0.94668
C          3.16224        0.21499       -2.15961
C          2.01077       -0.76778       -2.04237
P          1.81106       -0.83115       -0.19869
C          3.38626       -1.46808        0.47785
C          0.60399       -3.00719       -1.09777
O          1.05682       -2.36716       -0.05744
Rh         0.43595        0.40053        1.11182
Cl         0.07546        1.97050       -0.68426
C         -3.94904        1.81155       -2.53903
N         -3.89152        0.69788       -1.61508
C         -3.47970        1.08598       -0.28206
C         -3.18383       -0.15243        0.56737
P         -1.44099       -0.74080        0.32265
C         -1.56242       -1.18535       -1.44634
C         -1.71279       -2.43674        1.05774
O         -2.59125       -3.15903        0.68231
C          0.16059        2.04638        2.60354
C         -1.06747        1.46008        2.37317
H          3.92271        2.32351        0.36164
H          5.02794        1.20637       -0.45964
H          4.35066        2.58930       -1.33935
H          2.17562        1.59249       -1.04962
H          4.12632       -0.30144       -2.12188
H          3.12652        0.81335       -3.07865
H          2.18709       -1.76368       -2.45004
H          1.09631       -0.36189       -2.47663
H          3.13294       -2.06651        1.35156
H          3.87792       -2.09870       -0.26197
H          4.02962       -0.64853        0.77693
H          0.10787       -3.92655       -0.69272
H          1.75139        1.01152        1.51158
H          0.66146       -0.59545        2.22359
H         -4.64032        2.60834       -2.22536
H         -2.95070        2.24107       -2.62585
H         -4.25854        1.44391       -3.51580
H         -4.79622        0.23560       -1.57474
H         -2.57306        1.69012       -0.39696
H         -4.23458        1.71420        0.22762
H         -3.84604       -0.97430        0.27864
H         -3.33972        0.05809        1.62805
H         -2.51341       -1.68698       -1.61869
H         -0.73313       -1.85940       -1.72513
H         -1.51862       -0.26667       -2.02975
H         -1.02430       -2.72860        1.87406
H          0.70247        1.83681        3.51885
H          0.40160        2.99044        2.12624
H         -1.78438        1.97482        1.74468
H         -1.49118        0.79022        3.11538
