40
1537.log
C          1.86590       -2.35594        1.97953
C          1.41529       -2.49762        0.53129
P          1.45306       -0.90811       -0.39918
C          0.71279       -1.47125       -2.01005
O         -0.33161       -2.07218       -2.05954
C          3.19677       -0.81923       -1.00381
Br         4.37736       -0.21698        0.40832
Rh         0.53107        1.10362        0.17711
Cl         0.22704        0.96022       -2.24024
C         -3.53428        2.42540        0.60160
C         -2.83189        1.40891        1.49416
P         -1.60050        0.36804        0.58427
C         -1.56614       -1.04346        1.76562
O         -1.62662       -2.19557        1.44493
C         -2.54864       -0.38114       -0.79837
Br        -4.29611       -1.00520       -0.23562
C          1.38403        3.17400        0.03038
C         -0.02016        3.15569        0.26255
H          1.36147       -1.51053        2.44819
H          1.61935       -3.25679        2.53669
H          2.93831       -2.19150        2.05052
H          2.01943       -3.23547       -0.00880
H          0.37050       -2.82744        0.49028
H          1.36469       -1.35850       -2.89594
H          3.26903       -0.08718       -1.81225
H          3.55472       -1.79545       -1.34024
H          1.92513        1.69452       -0.00880
H          0.80294        1.05180        1.66462
H         -4.21387        1.93187       -0.08940
H         -4.12131        3.10796        1.21241
H         -2.81798        3.00874        0.02799
H         -2.27030        1.91401        2.28597
H         -3.56953        0.74918        1.96258
H         -1.43395       -0.73419        2.82394
H         -1.99912       -1.24672       -1.18136
H         -2.69271        0.34651       -1.59908
H          2.03331        3.50909        0.83325
H          1.72724        3.45615       -0.96114
H         -0.65402        3.43541       -0.57512
H         -0.37910        3.49894        1.22824
