50
1566.log
C          4.32212       -1.03232        0.11637
C          3.64056        0.26101        0.48410
O          3.53932        0.61467        1.63867
C          3.07482        1.09993       -0.62573
C          3.40666        0.65781       -2.04041
P          1.21129        1.16097       -0.32359
C          0.77447        2.31258       -1.68056
N          1.23339        2.25611        0.93715
Rh         0.23836       -0.92211       -0.05981
Cl        -0.70335       -0.20460        2.03468
C         -2.89038        1.79447        2.21106
C         -2.30785        1.25968        0.92811
O         -1.53500        1.91293        0.23137
C         -3.02371        0.10013        0.26590
C         -4.34273        0.55856       -0.34799
P         -1.80934       -0.52213       -0.99571
C         -2.06512        0.51763       -2.48164
N         -2.72954       -1.84451       -1.54560
C          0.97805       -2.73732        0.99698
C         -0.32284       -2.90617        0.42577
H          5.27431       -0.80704       -0.36087
H          3.71732       -1.60276       -0.58337
H          4.51070       -1.61452        1.01538
H          3.39103        2.13408       -0.44621
H          2.85840       -0.24823       -2.29512
H          3.12608        1.43227       -2.74950
H          4.47217        0.46990       -2.15722
H          1.52382        3.10122       -1.71904
H          0.71385        1.78807       -2.62942
H         -0.18936        2.74566       -1.43625
H          0.27161        2.49768        1.16858
H          1.68260        1.85271        1.75887
H          1.51904       -1.29881        0.68715
H          0.79422       -1.37954       -1.39546
H         -3.74369        2.42202        1.95043
H         -2.16007        2.40629        2.73376
H         -3.22349        0.99050        2.85896
H         -3.21584       -0.71520        0.97156
H         -4.20748        1.48121       -0.90748
H         -5.07891        0.73268        0.43464
H         -4.72113       -0.21171       -1.01709
H         -1.94442        1.56624       -2.23549
H         -1.31883        0.23547       -3.22297
H         -3.06164        0.32429       -2.87305
H         -2.30454       -2.24984       -2.37375
H         -2.78835       -2.57199       -0.83938
H          1.80078       -3.29127        0.55454
H          1.04476       -2.65919        2.07835
H         -1.15740       -2.96374        1.12120
H         -0.40977       -3.59368       -0.41317
