42
157.log
C          4.09182        1.18257        0.66715
C          3.40569       -0.12746        1.03043
P          1.76886       -0.29663        0.19865
C          1.27139       -1.79132        1.02584
N          0.89209       -2.67187        1.65502
C          2.24389       -0.96934       -1.46439
C          2.77604       -2.34860       -1.24563
O          3.91034       -2.59230       -0.93449
Rh         0.17215        1.31476        0.33923
Cl        -0.22378        1.18925       -2.02086
C         -2.87691       -2.33814        1.64125
C         -2.10984       -1.04249        1.86591
P         -1.53578       -0.17901        0.34353
C         -1.08404       -1.55385       -0.68608
N         -0.68819       -2.39828       -1.35382
C         -3.09129        0.33152       -0.51391
C         -4.00451       -0.78387       -0.91507
O         -5.17997       -0.81040       -0.68137
C          0.21399        3.54773        0.20750
C         -1.08835        3.00907        0.44879
H          5.07412        1.22957        1.13149
H          4.22108        1.27293       -0.41058
H          3.50535        2.03123        1.01880
H          3.22331       -0.17421        2.10823
H          4.02246       -0.98506        0.74106
H          1.36479       -0.95836       -2.11094
H          3.00720       -0.28836       -1.85367
H          2.01902       -3.14495       -1.35238
H          1.24879        2.39793        0.16379
H          0.34593        1.33839        1.85076
H         -3.78999       -2.17333        1.07431
H         -3.15028       -2.76764        2.60278
H         -2.26023       -3.06098        1.11054
H         -2.71665       -0.31085        2.41114
H         -1.21416       -1.23730        2.46466
H         -2.74023        0.82183       -1.43331
H         -3.61543        1.06206        0.11167
H         -3.50620       -1.58521       -1.49309
H          0.68486        4.11318        1.00625
H          0.41090        3.94369       -0.78496
H         -1.79553        3.05515       -0.37475
H         -1.53544        3.19121        1.42265
