42
1586.log
C         -0.51916        2.82194        0.85540
C         -1.59771        2.19082       -0.00124
N         -1.28609        2.25472       -1.43979
O         -0.12911        2.33955       -1.76601
O         -2.23064        2.23296       -2.18867
P         -1.96101        0.38962        0.41351
C         -3.58666        0.19923       -0.40506
C         -2.57020        0.77545        2.04667
N         -2.96934        0.97646        3.10057
Rh        -0.58728       -1.42656        0.25782
Cl        -0.77585       -0.72284       -2.02047
C          2.77132       -0.40233       -1.95453
C          2.22929        0.49179       -0.85631
N          3.25946        1.30862       -0.22302
O          4.37294        0.84581       -0.12747
O          2.90607        2.37551        0.22422
P          1.48510       -0.53857        0.52900
C          2.88551       -1.62014        1.00122
C          1.62226        0.56771        1.91673
N          1.67357        1.18584        2.87900
C         -1.14108       -3.52173       -0.34254
C          0.26249       -3.30762       -0.26462
H         -0.55251        3.90592        0.75940
H         -0.66626        2.56379        1.90289
H          0.47642        2.49897        0.55758
H         -2.56213        2.70026        0.12879
H         -4.21833        1.06933       -0.22454
H         -3.43262        0.07375       -1.47736
H         -4.07133       -0.69225       -0.00470
H         -1.89560       -2.20660        0.13063
H         -0.57893       -1.77482        1.73936
H          3.63641       -0.96838       -1.61663
H          3.06582        0.20346       -2.80934
H          1.98612       -1.08266       -2.28049
H          1.45088        1.16058       -1.24462
H          3.81151       -1.04777        1.08111
H          3.00568       -2.41767        0.26968
H          2.64725       -2.06081        1.96952
H         -1.60155       -4.16979        0.39645
H         -1.58915       -3.58454       -1.32995
H          0.80749       -3.24990       -1.20333
H          0.80278       -3.80418        0.53606
