50
1598.log
C          2.88776        2.25648        1.87236
C          1.69929        1.33893        1.61697
P          1.69860        0.58073       -0.06083
N          2.03599        1.96052       -0.97642
C          2.10010        1.82901       -2.42479
C          3.39104       -0.22654       -0.10140
C          3.67163       -1.21622        0.98047
O          4.14556        0.02835       -1.00645
Rh         0.00890       -0.89610       -0.55976
Cl         0.39212       -1.79190        1.61938
C         -2.78100       -0.84934        2.41473
C         -2.12492        0.45820        1.98710
P         -1.65628        0.44458        0.21054
N         -1.28792        2.08569       -0.04612
C         -2.28601        3.14691        0.01800
C         -3.38147        0.41967       -0.56172
C         -3.42769        0.24314       -2.04657
O         -4.34499        0.64311        0.12340
C          0.04737       -3.00707       -1.30687
C         -1.26763       -2.53429       -0.99697
H          2.87871        2.59083        2.90832
H          2.85367        3.13122        1.22880
H          3.82784        1.74357        1.68326
H          1.67853        0.50829        2.32665
H          0.75602        1.88608        1.71857
H          1.40956        2.71457       -0.70261
H          2.86228        1.09049       -2.66206
H          2.39392        2.78716       -2.85251
H          1.15166        1.50959       -2.87378
H          4.46125       -1.90136        0.67790
H          2.75931       -1.75588        1.24083
H          3.99629       -0.68224        1.87308
H          1.06523       -1.87287       -1.10874
H         -0.16693       -0.33507       -1.96130
H         -2.09914       -1.68170        2.25832
H         -3.03011       -0.81009        3.47323
H         -3.69496       -1.02672        1.85224
H         -2.80139        1.29848        2.16364
H         -1.20330        0.61805        2.55366
H         -0.71641        2.17660       -0.88052
H         -2.82155        3.28618       -0.92530
H         -3.01548        2.92199        0.79185
H         -1.78560        4.08247        0.27570
H         -2.43402        0.35849       -2.47667
H         -4.13296        0.94264       -2.49271
H         -3.78379       -0.76495       -2.25805
H          0.28062       -3.20406       -2.34947
H          0.49316       -3.72122       -0.61981
H         -1.74209       -2.93609       -0.10606
H         -1.95354       -2.39554       -1.82798
