46
160.log
C         -3.33244        0.65200        1.25385
P         -2.08655       -0.01326        0.08517
C         -2.03955       -1.79134        0.58897
C         -1.05991       -2.09678        1.69230
O         -0.00066       -2.63971        1.48531
C         -3.12166       -0.16257       -1.46853
C         -4.47847       -0.70882       -1.17901
O         -4.73422       -1.85339       -0.90855
O         -5.41908        0.24588       -1.21277
Rh        -0.17184        1.21061       -0.02271
Cl        -0.16389        0.33709        2.21109
C          0.88279       -1.87228       -1.55933
P          1.37977       -0.32329       -0.72057
C          2.55677        0.31138       -2.02281
C          3.55554        1.27924       -1.49447
O          4.21554        1.10600       -0.50589
C          2.47670       -0.97734        0.60928
C          3.77066       -1.56107        0.13003
O          3.96855       -2.04653       -0.95618
O          4.70601       -1.51661        1.07426
C          0.18063        3.27528        0.77348
C          1.37289        2.60767        0.35320
H         -4.16143       -0.04437        1.37591
H         -2.85001        0.81655        2.21664
H         -3.70468        1.60273        0.87093
H         -1.75804       -2.36312       -0.29970
H         -3.04890       -2.07822        0.89356
H         -1.43709       -1.93678        2.71221
H         -3.20048        0.83508       -1.90153
H         -2.58021       -0.82138       -2.14866
H         -6.29158       -0.12518       -1.00517
H         -1.04478        2.38870        0.44192
H         -0.32740        1.68747       -1.45341
H          1.76855       -2.38848       -1.92482
H          0.21046       -1.64400       -2.38528
H          0.37929       -2.50701       -0.83392
H          1.96647        0.73856       -2.83407
H          3.10791       -0.56170       -2.38395
H          3.68937        2.19547       -2.10514
H          1.89263       -1.75781        1.11261
H          2.68655       -0.20220        1.34898
H          5.54527       -1.87732        0.74760
H         -0.14358        4.13933        0.20119
H          0.01413        3.37250        1.84282
H          2.05651        2.27318        1.12883
H          1.87872        3.00061       -0.52434
