40
1607.log
C          0.37926       -2.55387       -0.56312
P          0.95984       -1.33136        0.68503
C          0.83336       -2.29136        2.22727
C          2.77979       -1.49324        0.34279
O          3.54559       -1.88571        1.18059
C          3.18499       -1.05653       -1.04328
Br         4.67996        0.19080       -0.95677
Rh         0.42671        0.90204        0.62045
Cl         0.02284        0.64553       -1.74399
C         -2.94847        1.98901        0.38340
P         -1.80824        0.70599        1.01888
C         -2.41379        0.46936        2.72433
C         -2.40043       -0.87957        0.27368
O         -2.31894       -1.88906        0.93520
C         -2.82950       -0.88878       -1.16607
Br        -4.71973       -0.44229       -1.19860
C          1.64713        2.72882        0.17186
C          0.27393        3.00952        0.41855
H          0.28540       -2.07835       -1.53819
H         -0.59120       -2.93132       -0.24785
H          1.08384       -3.38452       -0.61386
H          1.34692       -3.24577        2.11355
H         -0.22143       -2.45592        2.44528
H          1.29184       -1.72300        3.03498
H          3.53471       -1.91468       -1.61984
H          2.36696       -0.55418       -1.56485
H          1.90983        1.17203        0.37733
H          0.69139        1.03885        2.10247
H         -2.70860        2.92365        0.89071
H         -3.98506        1.72322        0.58761
H         -2.80152        2.12876       -0.68701
H         -3.49612        0.34170        2.72963
H         -2.13799        1.34346        3.31235
H         -1.93550       -0.41050        3.15087
H         -2.73499       -1.88229       -1.60578
H         -2.28911       -0.14114       -1.75070
H          2.38027        3.04988        0.90498
H          2.00053        2.78563       -0.85405
H         -0.33546        3.28931       -0.43675
H          0.02230        3.53998        1.33331
