44
1611.log
C         -1.71452        2.35041        2.14921
C         -2.68706        1.40362        1.47076
P         -1.89362        0.25075        0.25729
N         -3.32962       -0.31383       -0.42205
C         -1.34314        1.44736       -1.05411
C         -2.32248        1.81928       -2.11652
O         -0.21104        1.86908       -1.00049
Rh        -0.12013       -1.15216        0.56577
Cl        -0.74586       -1.40930       -1.76872
C          2.04786        1.59533        2.64357
C          1.78791        1.89628        1.17391
P          1.58251        0.38436        0.14922
N          3.14286       -0.25308        0.45204
C          2.14062        1.05120       -1.53374
C          2.02409        0.10765       -2.67880
O          2.62964        2.14236       -1.58736
C         -0.07917       -3.37074        0.78435
C          1.20636       -2.79215        0.52011
H         -1.29062        3.04710        1.42903
H         -0.90479        1.78541        2.60550
H         -2.21963        2.92362        2.92478
H         -3.47296        1.94721        0.93773
H         -3.16407        0.76075        2.21844
H         -3.91567       -0.77842        0.26513
H         -3.11605       -0.97105       -1.17232
H         -1.97167        2.68697       -2.67062
H         -2.41242        0.97159       -2.79520
H         -3.30185        1.99775       -1.67931
H         -1.13234       -2.25778        0.92668
H          0.12027       -0.93287        2.04145
H          3.05507        1.21291        2.79082
H          1.33873        0.85799        3.02034
H          1.94395        2.50340        3.23465
H          0.89348        2.50447        1.05690
H          2.63114        2.43165        0.73123
H          3.21260       -0.57148        1.41387
H          3.35765       -1.04280       -0.14911
H          2.39234       -0.87691       -2.39182
H          0.96659       -0.00990       -2.91972
H          2.56117        0.47842       -3.54914
H         -0.23861       -3.81828        1.76110
H         -0.55243       -3.92193       -0.02422
H          1.62216       -2.97047       -0.47015
H          1.94592       -2.85151        1.31532
