42
1614.log
C         -3.14975       -0.13167        1.99027
P         -1.95576        0.28784        0.66113
C         -3.08434        0.21894       -0.81383
O         -3.66175       -0.79595       -1.10120
C         -1.81736        2.11157        0.90664
C         -0.92802        2.80613       -0.12299
O         -0.67162        4.14720        0.21013
Rh        -0.25607       -1.12742        0.10415
Cl        -0.78364        0.09067       -1.94254
C          1.72846        1.43081        1.83752
P          1.65866       -0.01334        0.70552
C          2.68568       -1.16845        1.71737
O          3.01066       -0.96274        2.85103
C          2.99263        0.37599       -0.51264
C          2.52057        1.26747       -1.65589
O          3.61851        1.44945       -2.52372
C         -0.47441       -3.03326       -1.04514
C          0.87864       -2.59580       -0.94072
H         -2.63610       -0.16254        2.94980
H         -3.96500        0.59112        2.02602
H         -3.54852       -1.12218        1.77087
H         -3.26355        1.17356       -1.33994
H         -2.82936        2.53143        0.88106
H         -1.40863        2.27098        1.91177
H          0.00961        2.23951       -0.23395
H         -1.41349        2.83573       -1.09983
H         -0.27788        4.18720        1.08955
H         -1.41603       -2.06032       -0.24821
H         -0.15671       -1.84507        1.43373
H          0.86243        1.40640        2.49770
H          1.74074        2.36206        1.27537
H          2.63396        1.34870        2.44034
H          2.97723       -2.09835        1.19031
H          3.82406        0.85815        0.01084
H          3.35121       -0.56740       -0.93550
H          2.17877        2.23899       -1.26795
H          1.68099        0.79120       -2.17714
H          3.32406        1.93299       -3.30203
H         -0.76084       -3.93380       -0.51015
H         -0.97315       -2.91535       -2.00332
H          1.33693       -2.17999       -1.83485
H          1.55194       -3.20218       -0.34158
