42
1621.log
C          1.33513        3.29438       -0.44994
C          2.41570        2.23373       -0.53965
P          1.85713        0.61652        0.12730
N          1.76712        1.00158        1.77169
O          3.33400       -0.06574       -0.03580
C          3.55093       -1.46660        0.04857
Rh         0.05475       -0.54803       -0.66169
Cl         0.30151       -1.84770        1.38492
C         -2.95243        1.76491       -1.71664
C         -2.38669        2.09584       -0.34686
P         -1.58069        0.64011        0.43064
N         -1.22640        1.31138        1.94756
O         -2.96593       -0.11168        0.76390
C         -3.07086       -1.28747        1.55598
C         -0.08132       -2.40803       -1.88719
C         -1.35017       -1.89491       -1.46322
H          0.46571        2.97612       -1.02162
H          1.03434        3.44891        0.58451
H          1.68921        4.24121       -0.85318
H          2.70264        2.06686       -1.57883
H          3.30951        2.52329        0.01826
H          2.67308        1.26696        2.14688
H          1.39458        0.21369        2.29718
H          2.79412       -1.96103        0.66138
H          3.55133       -1.90446       -0.95310
H          4.53133       -1.61350        0.50311
H          1.03922       -1.45822       -1.41733
H         -0.05543        0.32141       -1.88973
H         -3.42046        2.63990       -2.16377
H         -2.15845        1.41909       -2.37651
H         -3.69594        0.97632       -1.63029
H         -3.17469        2.39872        0.34471
H         -1.65318        2.89945       -0.41225
H         -0.36459        1.84785        1.91717
H         -1.08597        0.55776        2.61703
H         -2.12130       -1.81772        1.64117
H         -3.41511       -1.01655        2.55651
H         -3.81204       -1.93762        1.08756
H          0.15472       -2.36497       -2.94668
H          0.27637       -3.31413       -1.40372
H         -1.87987       -2.46586       -0.70634
H         -2.00655       -1.48314       -2.22447
