42
1630.log
C          3.96627       -0.82012        0.79212
O          2.60683       -1.18445        0.83015
C          2.11234       -1.58571       -0.42520
P          0.27662       -1.82467       -0.27748
C          0.21044       -2.82957        1.24303
N          0.18216       -3.09079       -1.41833
Rh        -1.17338       -0.06564       -0.53156
Cl        -2.04041       -0.44956        1.67373
C          3.12473        2.21972       -1.76051
O          2.20813        1.59500       -0.89780
C          1.31418        2.50080       -0.30329
P          0.04096        1.50029        0.58948
C         -0.89812        2.86456        1.37026
N          0.94866        1.03026        1.92004
C         -3.26189       -0.01853       -1.32360
C         -2.76272        1.26296       -0.91060
H          4.58512       -1.65405        0.44046
H          4.25091       -0.56121        1.81071
H          4.11885        0.04252        0.13531
H          2.56191       -2.54258       -0.73522
H          2.31833       -0.82138       -1.18649
H         -0.82298       -3.11624        1.43188
H          0.83733       -3.70958        1.11027
H          0.56091       -2.23241        2.08110
H          0.28763       -2.72142       -2.36015
H         -0.73163       -3.53526       -1.36826
H         -2.17407       -1.06494       -1.15551
H         -0.57383        0.24186       -1.89258
H          2.60788        2.74570       -2.57256
H          3.75411        1.43768       -2.18372
H          3.75188        2.93977       -1.21880
H          1.83630        3.16341        0.40539
H          0.81633        3.11549       -1.06905
H         -0.21187        3.44812        1.98210
H         -1.36354        3.49233        0.61375
H         -1.66875        2.42828        2.00274
H          1.64449        0.33729        1.63804
H          0.31492        0.57494        2.57734
H         -3.44377       -0.17213       -2.38398
H         -4.01219       -0.48156       -0.68814
H         -3.19345        1.67788       -0.00403
H         -2.59231        2.00420       -1.68758
