36
164.log
C         -3.16186       -0.75538       -2.10812
C         -3.07313       -0.83204       -0.60410
Br        -2.09058       -2.42345       -0.06292
P         -2.10844        0.58274        0.12693
C         -3.38895        1.88667        0.06485
F         -2.35864        0.14609        1.66350
Rh        -0.00992        1.10221       -0.52887
Cl        -0.39848        2.61675        1.28904
C          1.49713       -2.70444        0.11551
C          2.24727       -1.51391        0.65825
Br         3.56714       -0.91597       -0.64620
P          1.17342       -0.04349        1.02259
C          0.40606       -0.59041        2.58537
F          2.34916        0.83921        1.68815
C          0.66625        2.80133       -1.84521
C          1.72633        2.12725       -1.16550
H         -2.16559       -0.62791       -2.53562
H         -3.77525        0.09775       -2.39733
H         -3.60651       -1.65869       -2.52420
H         -4.05383       -0.91873       -0.12759
H         -3.02696        2.73789        0.63845
H         -4.31266        1.51337        0.50658
H         -3.55744        2.19577       -0.96443
H         -0.63408        2.05786       -1.56836
H          0.15836        0.05848       -1.62032
H          0.93795       -2.42506       -0.77658
H          0.79198       -3.07807        0.85625
H          2.18445       -3.50745       -0.14672
H          2.82220       -1.75764        1.55711
H         -0.32359       -1.37416        2.39758
H         -0.09858        0.26541        3.03137
H          1.18284       -0.94708        3.26133
H          0.62700        2.71590       -2.92712
H          0.37255        3.77879       -1.47155
H          2.19074        2.64314       -0.32869
H          2.42344        1.55493       -1.76946
