34
1652.log
C         -3.40475        0.33402        2.04387
C         -2.80651        1.38691        1.12685
P         -1.74956        0.57669       -0.13090
N         -2.88147       -0.10137       -1.12891
F         -1.38506        1.97471       -0.94523
Rh         0.03089       -0.74785        0.32646
Cl        -0.07418       -1.32307       -2.01879
C          3.47216        0.83684        1.68987
C          3.28012        0.81101        0.18183
P          1.49442        0.88558       -0.24882
N          1.59922        1.40090       -1.83833
F          1.17895        2.33707        0.39009
C          0.21759       -2.91091        0.79148
C          1.47501       -2.23882        0.62812
H         -4.03312        0.79308        2.80394
H         -4.00575       -0.36829        1.46941
H         -2.60892       -0.22064        2.53884
H         -3.58203        1.95605        0.60814
H         -2.17892        2.08325        1.68555
H         -2.46844       -0.72530       -1.81600
H         -3.54958        0.53636       -1.54400
H         -0.93061       -1.90233        0.65916
H          0.09322       -0.35278        1.78709
H          4.52353        0.72720        1.94788
H          2.91063        0.03055        2.15811
H          3.11003        1.77861        2.09581
H          3.74776        1.67368       -0.29761
H          3.69569       -0.10002       -0.25139
H          1.61007        0.59706       -2.46167
H          0.78035        1.95514       -2.07560
H         -0.03394       -3.27429        1.78354
H         -0.09273       -3.58264       -0.00423
H          2.03531       -2.46359       -0.27672
H          2.10468       -2.14665        1.50876
