34
1653.log
C         -3.40483        0.33366        2.04381
C         -2.80660        1.38678        1.12705
P         -1.74957        0.57688       -0.13086
N         -2.88143       -0.10097       -1.12908
F         -1.38505        1.97507       -0.94486
Rh         0.03083       -0.74779        0.32640
Cl        -0.07446       -1.32302       -2.01883
C          3.47225        0.83661        1.68991
C          3.28025        0.81044        0.18187
P          1.49458        0.88548       -0.24880
N          1.59949        1.40087       -1.83829
F          1.17948        2.33701        0.39017
C          0.21737       -2.91085        0.79137
C          1.47484       -2.23885        0.62802
H         -4.03323        0.79252        2.80397
H         -4.00579       -0.36854        1.46917
H         -2.60899       -0.22109        2.53866
H         -3.58214        1.95599        0.60843
H         -2.17908        2.08304        1.68591
H         -2.46839       -0.72494       -1.81613
H         -3.54937        0.53687       -1.54424
H         -0.93076       -1.90219        0.65909
H          0.09324       -0.35274        1.78703
H          4.52353        0.72635        1.94801
H          2.91016        0.03083        2.15836
H          3.11071        1.77874        2.09555
H          3.74821        1.67281       -0.29780
H          3.69552       -0.10087       -0.25106
H          1.61063        0.59707       -2.46168
H          0.78054        1.95495       -2.07564
H         -0.03418       -3.27426        1.78342
H         -0.09300       -3.58254       -0.00436
H          2.03512       -2.46367       -0.27682
H          2.10452       -2.14673        1.50866
