50
1655.log
C          5.26407       -0.76479        0.83786
C          3.73847       -0.69215        0.83722
N          3.18787       -1.86733        0.18619
N          3.34921        0.52041        0.12422
P          1.74575        1.08003        0.17228
C          1.64211        1.44229        1.96898
C          2.08696        2.76042       -0.48035
Rh         0.09979       -0.10724       -0.89959
Cl         0.00301       -1.47672        1.10116
C         -4.96652       -0.59465        1.52864
C         -3.48621       -0.67144        1.15535
N         -3.15037       -2.02373        0.75412
N         -3.25955        0.24979        0.04586
P         -1.77440        1.01992       -0.21158
C         -1.73403        2.04386        1.31168
C         -2.39162        2.26549       -1.40642
C          0.21508       -1.94404       -2.16220
C         -1.11610       -1.44561       -2.00661
H          5.61989       -0.94459       -0.17391
H          5.60358       -1.57422        1.47936
H          5.67957        0.17118        1.20037
H          3.38328       -0.57424        1.87493
H          2.20912       -1.97078        0.45147
H          3.67047       -2.70307        0.49604
H          3.62790        0.41988       -0.85101
H          2.63971        1.70473        2.31902
H          0.96271        2.27455        2.13313
H          1.27169        0.57076        2.50517
H          2.36789        2.68480       -1.52836
H          2.89655        3.21734        0.08508
H          1.18568        3.36537       -0.40794
H          1.22502       -0.97247       -1.47842
H          0.20814        0.79244       -2.10693
H         -5.16128       -1.18160        2.42282
H         -5.56653       -0.98671        0.71122
H         -5.25004        0.43730        1.71467
H         -2.88132       -0.31071        2.00445
H         -3.55377       -2.69451        1.39830
H         -2.13774       -2.13976        0.80066
H         -3.57659       -0.19710       -0.81183
H         -2.74548        2.38494        1.52788
H         -1.07868        2.89658        1.14312
H         -1.35269        1.46201        2.14797
H         -2.61300        1.77603       -2.35221
H         -3.29178        2.73657       -1.01710
H         -1.61747        3.00949       -1.57849
H          0.66687       -1.89007       -3.14858
H          0.48046       -2.84542       -1.61620
H         -1.79618       -2.02086       -1.38466
H         -1.59149       -1.01717       -2.88647
