42
166.log
C          4.13640       -0.69060        0.13363
C          3.27550        0.35068        0.83024
P          1.69663        0.72848       -0.05755
Cl         1.04729        2.17104        1.12305
C          2.34870        1.71559       -1.48237
C          1.23908        2.40668       -2.25819
Rh         0.23657       -0.99272       -0.40027
Cl         0.63743       -1.38027        1.92916
C         -3.34364        1.10086        2.22463
C         -2.08200        0.32097        1.88546
P         -1.67723        0.14180        0.09099
Cl        -1.79688        2.01619       -0.53522
C         -3.27497       -0.49559       -0.59345
C         -3.27150       -0.51100       -2.11508
C          0.59622       -3.17380       -0.73182
C         -0.77991       -2.84222       -0.53064
H          4.40066       -0.37968       -0.87556
H          3.60882       -1.64117        0.07882
H          5.05453       -0.84747        0.69635
H          2.98983       -0.00821        1.82291
H          3.81799        1.29522        0.94281
H          3.06799        2.44551       -1.09936
H          2.87216        1.01079       -2.13261
H          1.64332        2.90945       -3.13446
H          0.50169        1.67554       -2.58651
H          0.73723        3.14529       -1.63671
H          1.43870       -1.88053       -0.74580
H          0.05058       -0.71813       -1.88216
H         -3.37128        1.28721        3.29635
H         -4.24119        0.54699        1.96001
H         -3.35860        2.06158        1.71358
H         -1.20826        0.79691        2.34078
H         -2.12733       -0.69614        2.28361
H         -3.41567       -1.50345       -0.19598
H         -4.08302        0.14364       -0.23028
H         -4.17690       -0.98150       -2.49358
H         -3.22207        0.50406       -2.50382
H         -2.40964       -1.05887       -2.49158
H          0.89395       -3.52744       -1.71475
H          1.11228       -3.66886        0.08590
H         -1.21708       -3.12692        0.42329
H         -1.45186       -2.97351       -1.37400
