34
1668.log
C          2.47757        2.22995       -1.58156
C          2.47930        1.85128       -0.11119
P          1.92253        0.10490        0.10546
O          3.14800       -0.70004       -0.57232
O          2.23504       -0.06633        1.66361
Rh        -0.11954       -0.69992       -0.53609
Cl        -0.23560       -1.77215        1.66444
C         -3.24369        1.69091       -1.24106
C         -2.26304        2.27493       -0.24030
P         -1.22723        0.96501        0.53757
O         -0.24267        1.85670        1.46959
O         -2.29634        0.43249        1.60147
C         -0.75694       -2.59220       -1.48706
C         -1.84787       -1.72903       -1.13034
H          2.84602        3.24401       -1.72346
H          3.10446        1.54692       -2.15189
H          1.46556        2.16613       -1.97617
H          1.81510        2.49644        0.45830
H          3.48283        1.92122        0.31991
H          3.98573       -0.50428       -0.13929
H          1.54096       -0.61904        2.07130
H          0.58030       -1.90558       -1.17254
H         -0.06650        0.01926       -1.86066
H         -2.70170        1.19065       -2.04046
H         -3.88878        0.96466       -0.75206
H         -3.86400        2.47223       -1.67556
H         -2.79104        2.79158        0.56650
H         -1.58691        2.97951       -0.72811
H         -0.72641        2.28947        2.18205
H         -1.99315       -0.43690        1.92338
H         -0.57006       -2.75694       -2.54398
H         -0.61037       -3.48476       -0.88380
H         -2.47043       -2.04166       -0.29512
H         -2.42104       -1.29604       -1.94508
