42
1681.log
C         -0.51565       -2.37108        2.06868
C          0.89236       -2.06675        1.58220
P          0.87779       -0.72742        0.31365
C          0.33643       -1.60942       -1.19336
O          2.55123       -0.58502        0.05793
C          3.35539       -1.51807       -0.34231
O          3.16639       -2.65225       -0.61502
Br         5.13409       -0.76174       -0.42142
Rh         0.20105        1.39070        0.77296
Cl         1.01949        1.69097       -1.45323
C         -2.04401        3.10828       -2.13395
C         -2.33213        1.65491       -1.78477
P         -1.90629        1.28478       -0.03104
C         -3.24704        2.14728        0.87299
O         -2.47532       -0.34214        0.02959
C         -3.67190       -0.74762       -0.24770
O         -4.66418       -0.17072       -0.52018
Br        -3.66393       -2.69234       -0.17133
C          1.38475        3.17072        1.43347
C          0.03238        3.48194        1.10399
H         -1.09712       -2.86191        1.29344
H         -1.01944       -1.44776        2.35296
H         -0.48272       -3.02814        2.93446
H          1.50438       -1.70279        2.41352
H          1.36203       -2.96166        1.16595
H          0.48134       -0.95649       -2.05342
H          0.90279       -2.53108       -1.31958
H         -0.71944       -1.84414       -1.08993
H          1.60508        1.61423        1.33075
H         -0.28420        1.09804        2.18329
H         -2.33706        3.30357       -3.16300
H         -0.97778        3.30241       -2.04404
H         -2.59174        3.78950       -1.48601
H         -3.38825        1.41857       -1.94409
H         -1.71814        1.00372       -2.41293
H         -4.21218        2.01371        0.38805
H         -2.99821        3.20491        0.91012
H         -3.28457        1.76711        1.89261
H          1.68741        3.24832        2.47321
H          2.15543        3.46697        0.72750
H         -0.13720        4.03353        0.18338
H         -0.62548        3.77384        1.91823
