38
1687.log
C          1.11406        1.67932        1.25573
P          1.36492        0.22533        0.17783
C          2.56674       -0.71169        1.25955
O          3.21080       -1.62443        0.82484
C          2.63763        0.66898       -1.10270
N          3.73131        1.41412       -0.50109
O          4.33675        2.19201       -1.18819
O          3.95932        1.19535        0.67195
Rh        -0.23756       -1.33869       -0.37872
Cl        -0.61523       -1.21236        2.00648
C         -3.29127        0.02091       -1.88328
P         -1.87500        0.16617       -0.73010
C         -1.13757        1.75928       -1.37934
O          0.05380        1.90098       -1.41832
C         -2.75298        0.74336        0.80983
N         -2.79686        2.17293        0.89238
O         -3.74534        2.69978        1.41893
O         -1.84276        2.78652        0.41908
C         -0.19092       -3.56246       -0.27704
C         -1.48664       -3.03071       -0.56484
H          2.07389        2.02700        1.63549
H          0.59390        2.48244        0.74099
H          0.50797        1.33507        2.09505
H          2.59179       -0.42158        2.32393
H          3.02811       -0.29718       -1.44903
H          2.22900        1.21989       -1.94986
H          0.84594       -2.40477       -0.19974
H          0.08044       -1.34874       -1.85805
H         -3.88170        0.93806       -1.88721
H         -2.90637       -0.17209       -2.88377
H         -3.91826       -0.81809       -1.58504
H         -1.81929        2.44214       -1.91609
H         -3.75543        0.32144        0.91950
H         -2.11548        0.32914        1.63161
H          0.31613       -4.11633       -1.06093
H         -0.02420       -3.96970        0.71632
H         -2.22969       -3.07778        0.22784
H         -1.89221       -3.20316       -1.55793
