36
1691.log
C          2.19008        1.99402       -1.01413
P          1.91225        0.42740       -0.09343
C          3.42034       -0.48569       -0.60829
C          2.40739        0.91035        1.60063
Rh        -0.05015       -0.70017       -0.39461
Cl        -0.31202       -0.96578        1.97229
C         -1.85704        2.15022       -1.54701
P         -1.48193        1.05169       -0.12416
C         -3.17685        0.62348        0.42002
C         -1.07387        2.28494        1.16878
C         -0.44600       -2.88330       -0.63525
C         -1.62580       -2.07530       -0.68877
H          1.43465        2.72883       -0.74398
H          3.18046        2.39139       -0.79468
H          2.10602        1.78573       -2.07914
H          3.51523       -1.38553       -0.00145
H          4.30779        0.13395       -0.48052
H          3.32215       -0.77519       -1.65346
H          1.69179        1.61950        2.00999
H          2.38970        0.01869        2.22539
H          3.40628        1.34644        1.59245
H          0.79892       -1.97724       -0.47226
H          0.06942       -0.49829       -1.89603
H         -2.55134        2.93675       -1.25421
H         -0.93561        2.59264       -1.91966
H         -2.29591        1.55168       -2.34273
H         -3.66948        0.01975       -0.34009
H         -3.75195        1.53233        0.59741
H         -3.10218        0.05031        1.34299
H         -1.88949        3.00062        1.27025
H         -0.15601        2.81270        0.91613
H         -0.93336        1.74898        2.10626
H         -0.12783       -3.38060       -1.54753
H         -0.29581       -3.48118        0.25966
H         -2.29423       -2.13847        0.16478
H         -2.14220       -2.00656       -1.64336
