50
1705.log
C          3.90641        0.26778       -1.21767
C          3.05415        0.77112       -0.06861
C          2.92007       -0.19784        1.03644
O          3.55352       -1.21468        1.20737
C          1.77107        0.23711        1.94351
O          1.16990        1.32717        1.52445
P          1.21169        1.47719       -0.39151
C          1.28482        1.57933       -2.28826
C          1.63566        3.26489       -0.16717
Rh        -0.05176       -0.93800       -0.49607
Cl         0.60107       -1.19458        1.79811
C         -3.14475        1.19836       -1.75385
C         -3.15380        0.77407       -0.28842
C         -2.59206        1.83494        0.66788
O         -3.33744        2.35521        1.50546
C         -1.24080        2.17411        0.50933
O         -0.49418        1.63500       -0.44701
P         -2.23971       -0.79866        0.00495
C         -2.66046       -1.09847        1.76052
C         -3.29073       -2.04253       -0.83446
C          1.58336       -2.56749       -1.03514
C          0.18279       -2.98284       -0.73836
H          4.38920        1.09104       -1.73738
H          4.67758       -0.39505       -0.82242
H          3.31870       -0.29614       -1.93871
H          3.50305        1.66057        0.38785
H          2.03132        0.25852        3.00706
H          1.11950        0.63031       -2.79106
H          2.26480        1.95759       -2.56214
H          0.52990        2.28453       -2.62448
H          1.74065        3.52502        0.88274
H          0.84103        3.86776       -0.60579
H          2.56261        3.48948       -0.68825
H          1.57848       -1.39542       -0.97009
H         -0.47929       -0.81482       -1.92724
H         -3.71653        0.49554       -2.35787
H         -2.12882        1.24094       -2.13710
H         -3.59626        2.18387       -1.85119
H         -4.18799        0.58516        0.03361
H         -0.79206        2.89160        1.18249
H         -3.74348       -1.08310        1.87798
H         -2.26804       -2.06376        2.07959
H         -2.22937       -0.30891        2.37542
H         -4.33723       -1.87122       -0.58555
H         -2.99469       -3.03603       -0.50474
H         -3.14896       -1.97309       -1.90987
H          1.92402       -2.79943       -2.04215
H          2.31377       -2.89667       -0.29705
H          0.04120       -3.55380        0.17788
H         -0.35059       -3.43148       -1.57445
