32
1707.log
C          3.44779       -0.64349       -0.89572
P          1.99324        0.00610        0.01472
C          2.61921        0.04703        1.73136
C          2.19446        1.72605       -0.38723
N          2.24790        2.84022       -0.65394
Rh        -0.08053       -0.78392       -0.44270
Cl        -0.41230       -1.19239        1.89173
C         -0.80047        2.15445        1.41320
P         -1.17414        1.17233       -0.08564
C         -1.27337        2.47157       -1.37324
C         -2.91629        0.96106        0.19021
N         -4.04134        0.82141        0.35355
C         -0.85677       -2.84669       -0.84739
C         -1.86638       -1.83188       -0.85345
H          4.34589       -0.08039       -0.64222
H          3.25872       -0.57573       -1.96626
H          3.58215       -1.69193       -0.62712
H          2.69885       -0.98381        2.07782
H          3.58989        0.54134        1.77676
H          1.89863        0.55743        2.36863
H          0.50328       -2.20123       -0.61852
H          0.11212       -0.49767       -1.92716
H         -0.82591        1.49190        2.27838
H          0.19452        2.59027        1.31384
H         -1.54000        2.94692        1.52993
H         -0.26768        2.84556       -1.56450
H         -1.66914        2.03814       -2.29044
H         -1.91480        3.28822       -1.04333
H         -0.62121       -3.33055       -1.79135
H         -0.84018       -3.52123        0.00443
H         -2.55539       -1.81352       -0.01302
H         -2.33829       -1.59340       -1.80357
