44
1716.log
C          1.37764       -0.73507        2.70436
P          1.89122       -0.13285        1.04719
C          3.63066        0.32253        1.38488
C          2.19712       -1.73288        0.12975
O          3.23670       -1.86566       -0.46351
C          1.11895       -2.77137        0.15755
C          0.57387       -3.03473       -1.24253
O         -0.54727       -3.41850       -1.44346
Rh         0.70257        1.33128       -0.25315
Cl         0.34925       -0.52088       -1.79357
C         -2.82969        1.83792       -0.17902
P         -1.39039        1.04343        0.63127
C         -1.71361        1.48055        2.37706
C         -1.89868       -0.74568        0.67828
O         -1.61524       -1.39226        1.65759
C         -2.57587       -1.33556       -0.52533
C         -4.07149       -1.28975       -0.43288
O         -4.71350       -0.64269        0.34659
C          1.38869        2.55771       -1.99546
C         -0.00602        2.68203       -1.72477
H          2.03811       -1.54100        3.02555
H          0.34694       -1.08405        2.68996
H          1.46168        0.10073        3.39867
H          3.65245        1.29190        1.88091
H          4.16323        0.38928        0.43676
H          4.10653       -0.43025        2.01304
H          0.30254       -2.50873        0.83114
H          1.56103       -3.72323        0.47120
H          1.34464       -3.00776       -2.02624
H          2.04669        1.59596       -0.93906
H          0.95806        2.46673        0.71492
H         -3.75328        1.48823        0.28126
H         -2.73660        2.91500       -0.04457
H         -2.84174        1.62068       -1.24520
H         -1.03301        0.93496        3.02622
H         -1.54348        2.54902        2.50079
H         -2.74346        1.23272        2.63230
H         -2.26538       -0.79944       -1.42868
H         -2.25902       -2.37768       -0.65235
H         -4.56351       -1.92751       -1.19002
H          2.02606        3.41447       -1.79807
H          1.67967        1.98706       -2.87268
H         -0.68505        2.20572       -2.42627
H         -0.36336        3.63444       -1.34305
