48
1718.log
C         -2.70643        3.50813       -0.21677
N         -2.19458        2.24025        0.27867
C         -2.38668        2.11678        1.71068
C         -2.77978        1.12878       -0.44443
P         -2.09646       -0.55756       -0.01978
C         -3.42366       -1.18823        1.09526
O         -2.50638       -1.28213       -1.37254
Rh         0.10276       -0.97106        0.51248
Cl         0.09672       -2.50829       -1.37089
C          4.85163        1.12330        0.13282
N          3.42244        0.99727        0.33066
C          2.92519        1.97737        1.27055
C          2.71839        1.04852       -0.92607
P          0.90749        0.69974       -0.81309
C          0.59171        0.49563       -2.61556
O          0.37130        2.18757       -0.57786
C          1.07115       -2.59225        1.70238
C          1.99306       -1.70056        1.05903
H         -2.48958        3.59443       -1.28027
H         -3.79078        3.60666       -0.06960
H         -2.20745        4.32194        0.30683
H         -3.44958        2.09991        1.98943
H         -1.90941        1.19666        2.04600
H         -1.90725        2.95857        2.20833
H         -3.87752        1.08692       -0.32552
H         -2.56767        1.26113       -1.51103
H         -3.24262       -2.25014        1.25784
H         -3.42325       -0.67843        2.05382
H         -4.38664       -1.06637        0.60050
H         -1.73678       -1.86757       -1.63189
H         -0.34247       -2.14488        1.40996
H          0.09267       -0.04513        1.70594
H          5.13745        2.08993       -0.31243
H          5.19695        0.32407       -0.52206
H          5.35371        1.02298        1.09421
H          3.00493        3.00726        0.88961
H          1.87899        1.75863        1.47873
H          3.49094        1.90053        2.19842
H          3.13815        0.28346       -1.58720
H          2.80483        2.03480       -1.42563
H          1.04647       -0.42197       -2.97635
H         -0.48274        0.43606       -2.78478
H          0.99847        1.35706       -3.14424
H         -0.53854        2.21785       -0.17878
H          1.01567       -2.56148        2.78722
H          0.98828       -3.59832        1.29886
H          2.54458       -2.08989        0.20796
H          2.58428       -1.03978        1.68322
