36
1725.log
C          4.16440       -0.85284       -0.83201
C          3.35188        0.37709       -1.20324
P          1.75041        0.46595       -0.28338
Br         1.20737        2.46691       -0.97326
C          2.82374        0.22778        2.51856
O          2.74891        0.87738        1.51683
O          2.41172       -0.83646        2.96994
Rh         0.23214       -1.16773       -0.83567
Cl         0.87371       -2.36738        1.20824
C         -3.13385        0.03371        2.63610
C         -2.26395       -0.89534        1.80006
P         -1.50595       -0.12169        0.29259
Br        -3.30376        0.57378       -0.74408
C         -0.94527        1.43834        1.13299
O          0.03241        1.37057        1.83661
O         -1.64054        2.51855        0.86862
C         -0.40947       -3.16257       -1.81419
C         -1.50015       -2.73697       -1.10862
H          4.44611       -0.82797        0.21969
H          3.59499       -1.76421       -1.01343
H          5.07327       -0.89517       -1.42876
H          3.91310        1.28584       -0.95751
H          3.12326        0.38326       -2.27402
H          1.73699       -1.52009        2.27984
H          1.40786       -1.72580       -1.58489
H         -0.07298       -0.43433       -2.11692
H         -3.59656       -0.53491        3.44062
H         -2.54122        0.82864        3.08567
H         -3.92780        0.48233        2.04041
H         -2.85045       -1.75367        1.45442
H         -1.42706       -1.27405        2.39578
H         -1.24196        3.32885        1.23295
H         -0.36137       -3.02459       -2.88739
H          0.23774       -3.93236       -1.40787
H         -1.72081       -3.17341       -0.14019
H         -2.32992       -2.25874       -1.61860
