34
175.log
C         -2.84028       -0.50206        2.84176
C         -2.67179        0.69289        1.91588
P         -1.71861        0.21837        0.40369
Br        -1.81483        2.08216       -0.70731
N         -3.13380       -0.59817       -0.40603
O         -3.89607        0.04109       -1.07792
O         -3.25432       -1.75364       -0.06384
Rh         0.02512       -1.24627        0.25933
Cl        -0.69294       -1.06232       -2.03658
C          2.45005        0.49735       -2.68079
C          1.85616        1.36297       -1.57593
P          1.58955        0.34442       -0.06445
Br         3.65930        0.03983        0.55454
N          1.22154        1.76637        1.05965
O          2.05818        2.61813        1.18421
O          0.12034        1.75583        1.57102
C          0.11243       -3.48262        0.09634
C          1.35708       -2.84762       -0.15045
H         -3.39548       -1.30554        2.35831
H         -1.86525       -0.88796        3.13722
H         -3.37993       -0.20464        3.73783
H         -3.64063        1.10148        1.60299
H         -2.10230        1.48452        2.40857
H         -0.97020       -2.36929        0.50513
H          0.36855       -1.29494        1.73981
H          2.58780        1.09592       -3.57784
H          3.41701        0.08713       -2.39009
H          1.77358       -0.32139       -2.92312
H          0.88235        1.75131       -1.89084
H          2.51482        2.20159       -1.32073
H         -0.00056       -4.06028        1.00796
H         -0.43887       -3.87617       -0.75232
H          1.70605       -2.80521       -1.18005
H          2.15122       -2.96071        0.58394
