38
176.log
C          4.14564       -1.68248       -0.38706
C          3.24919       -0.44656       -0.45195
C          3.89909        0.67298        0.17377
N          4.41495        1.54326        0.70821
P          1.57408       -0.57151        0.38654
C          1.97700       -1.30222        2.01675
Br         0.85186       -2.37057       -0.63710
Rh         0.38438        1.36935        0.29076
Cl         0.67674        1.18235       -2.07589
C         -2.04625       -0.97034       -2.15737
C         -2.63747        0.19614       -1.36607
C         -4.03128       -0.02476       -1.09814
N         -5.13460       -0.21342       -0.86343
P         -1.74377        0.54206        0.24840
C         -3.01043        1.54274        1.12501
Br        -2.05201       -1.35241        1.31737
C          1.03622        3.51410        0.12824
C         -0.37083        3.34958        0.05998
H          4.47573       -1.87790        0.63195
H          5.03058       -1.51432       -0.99920
H          3.62959       -2.56007       -0.77282
H          3.02451       -0.18168       -1.49654
H          2.55571       -0.57324        2.58427
H          1.04201       -1.49823        2.54476
H          2.53164       -2.23506        1.91725
H          1.72849        2.07964        0.38935
H          0.26566        1.45334        1.80683
H         -2.60430       -1.10760       -3.08200
H         -2.08954       -1.90042       -1.59128
H         -1.01071       -0.75361       -2.41353
H         -2.52587        1.12688       -1.94152
H         -3.95160        0.99898        1.21654
H         -2.63100        1.78354        2.11899
H         -3.18122        2.46977        0.57759
H          1.46211        3.97718        1.01183
H          1.57280        3.73386       -0.78953
H         -0.84343        3.48666       -0.91021
H         -0.96008        3.71371        0.89717
