48
1760.log
C         -3.82196        2.43233       -0.39062
C         -2.85762        2.28576       -1.55817
C         -2.64810        0.83303       -1.96685
P         -1.70323       -0.19268       -0.74010
C         -1.51308       -1.69832       -1.76131
C         -3.11151       -0.80666        0.31591
O         -3.89896       -1.63136       -0.06011
O         -3.17554       -0.20687        1.49449
Rh         0.02082        0.56806        0.55176
Cl        -0.41114       -1.64712        1.44040
C          5.03089        2.27042       -0.36770
C          3.65827        1.73493       -0.75585
C          3.48256        0.28379       -0.31996
P          1.76013       -0.29693       -0.63546
C          1.73735       -0.39647       -2.46806
C          1.97552       -2.09909       -0.25691
O          1.56714       -2.98936       -0.95123
O          2.64300       -2.26061        0.87509
C         -0.03352        1.40359        2.61948
C          1.28291        1.07031        2.17718
H         -4.00625        3.48312       -0.17904
H         -3.39989        1.97341        0.50033
H         -4.77381        1.95396       -0.61487
H         -3.24013        2.84080       -2.41909
H         -1.89054        2.71504       -1.28200
H         -3.60339        0.33475       -2.16091
H         -2.05329        0.80334       -2.88549
H         -2.49018       -2.17540       -1.84974
H         -1.14079       -1.42790       -2.74794
H         -0.81629       -2.38657       -1.28405
H         -3.87426       -0.59556        2.04873
H         -1.04603        1.18290        1.45482
H          0.20583        1.92358       -0.10032
H          5.14243        3.30301       -0.68936
H          5.16606        2.23044        0.71090
H          5.81780        1.67980       -0.83243
H          3.53072        1.81086       -1.83783
H          2.87844        2.34302       -0.29134
H          4.17704       -0.36963       -0.85866
H          3.67851        0.18443        0.75041
H          1.14587       -1.26526       -2.75243
H          2.74969       -0.51269       -2.85380
H          1.28466        0.50422       -2.87844
H          2.63221       -3.18919        1.16476
H         -0.26654        2.45328        2.77470
H         -0.50260        0.74021        3.34093
H          1.73879        0.18016        2.60368
H          1.97964        1.88823        2.01711
