40
1763.log
C          1.34061        2.38853       -1.80908
C          2.39524        1.58039       -1.07092
C          3.30771        2.45002       -0.26299
O          4.44381        2.18729        0.01423
P          1.61375        0.30405        0.08172
C          1.32031        1.25005        1.62754
Br         3.43321       -0.75660        0.67109
Rh        -0.00895       -1.10628       -0.73495
Cl         0.11050       -1.99799        1.47707
C         -2.29726        0.11362        2.51064
C         -2.97273       -0.33627        1.22067
C         -4.32678        0.28155        1.05735
O         -5.26923       -0.26011        0.54794
P         -1.93565        0.04528       -0.30084
C         -3.19501       -0.04103       -1.63633
Br        -1.84705        2.23768       -0.10644
C          0.14538       -3.22089       -1.49032
C         -1.19494       -2.77237       -1.35153
H          0.81810        3.06570       -1.13607
H          1.80818        2.97795       -2.59511
H          0.60877        1.72677       -2.27151
H          2.98787        0.97970       -1.77394
H          2.82747        3.38464        0.08968
H          0.58353        2.03464        1.45940
H          0.94221        0.55063        2.37507
H          2.25403        1.68561        1.98505
H          1.14293       -2.01284       -1.15647
H         -0.00807       -0.53375       -2.14557
H         -2.91184       -0.17018        3.36307
H         -1.33205       -0.37853        2.61266
H         -2.15958        1.19461        2.53391
H         -3.06268       -1.43003        1.19608
H         -4.39644        1.31811        1.44121
H         -3.65070       -1.03090       -1.62760
H         -3.97844        0.70754       -1.51805
H         -2.69167        0.10914       -2.59234
H          0.53220       -3.38380       -2.49126
H          0.53334       -3.90967       -0.74586
H         -1.77212       -3.17386       -0.52230
H         -1.76947       -2.61997       -2.26103
