44
1768.log
C          2.30982        1.04989        2.21430
C          1.98264        1.52477        0.84817
O          1.74280        2.66882        0.53500
P          1.81906        0.21117       -0.45755
C          2.50585        1.14114       -1.87998
C          3.22124       -0.92759       -0.02386
N          4.43473       -0.19520        0.28570
Rh        -0.17459       -0.90890       -0.65265
Cl         0.19298       -1.61871        1.61812
C         -1.03279        2.82770       -1.46423
C         -2.15004        2.15067       -0.74689
O         -3.29400        2.52381       -0.73256
P         -1.65546        0.61646        0.20683
C         -1.22806        1.48199        1.77277
C         -3.35625        0.03522        0.64509
N         -3.28170       -1.15903        1.45881
C         -0.50728       -3.05891       -1.23052
C         -1.70716       -2.34776       -0.92784
H          1.68658        0.17903        2.43576
H          2.16964        1.83573        2.95324
H          3.34766        0.71923        2.21375
H          3.45093        1.60937       -1.60996
H          1.79755        1.91586       -2.16461
H          2.63955        0.45610       -2.71670
H          3.32396       -1.64493       -0.85805
H          2.89975       -1.48720        0.86001
H          4.86152        0.17282       -0.55706
H          5.11280       -0.80254        0.73285
H          0.67164       -2.08207       -1.17854
H         -0.38454       -0.42880       -2.07379
H         -1.33752        3.79967       -1.84521
H         -0.17181        2.92570       -0.80139
H         -0.73940        2.18105       -2.29153
H         -0.92963        0.73616        2.50912
H         -2.09393        2.04215        2.12715
H         -0.39821        2.16517        1.60957
H         -3.88131        0.88595        1.11552
H         -3.87880       -0.20525       -0.28935
H         -2.63288       -1.03990        2.23040
H         -4.19028       -1.40473        1.83471
H         -0.34956       -3.37987       -2.25671
H         -0.15140       -3.77350       -0.49273
H         -2.20548       -2.56314        0.01219
H         -2.38447       -2.13180       -1.74949
