42
1770.log
C          2.07272        0.43326        2.67433
P          1.84589        0.45674        0.85655
C          3.32241        1.37310        0.30370
C          2.43264       -1.32267        0.51389
C          3.73556       -1.53240        1.07126
N          4.76460       -1.69683        1.54057
N          2.44313       -1.51292       -0.94731
O          3.40551       -1.12744       -1.54910
O          1.47829       -2.07322       -1.40987
Rh        -0.14024        1.16792        0.02792
Cl         0.94788        0.97349       -2.08899
C         -1.47867       -1.31661       -2.11870
P         -1.30631       -0.75506       -0.39269
C         -1.03015       -2.35145        0.46543
C         -3.17156       -0.51349       -0.04956
C         -3.89474       -1.74052       -0.18125
N         -4.46370       -2.72462       -0.30491
N         -3.27350       -0.00473        1.32730
O         -3.83545        1.04684        1.48375
O         -2.76792       -0.67935        2.18746
C         -0.69962        3.26905       -0.55918
C         -1.71202        2.31736       -0.85253
H          3.07650        0.11785        2.95564
H          1.89310        1.44571        3.03375
H          1.33078       -0.22115        3.12975
H          4.23329        0.93802        0.71495
H          3.22022        2.40491        0.64193
H          3.36391        1.36544       -0.78612
H          1.70094       -2.00355        0.96368
H          0.49775        2.54244        0.22244
H         -0.75792        1.29783        1.40819
H         -2.16578       -2.16017       -2.18252
H         -1.81965       -0.49591       -2.74799
H         -0.48998       -1.61689       -2.46173
H         -0.81981       -2.18455        1.52069
H         -1.90718       -2.99024        0.37077
H         -0.19193       -2.84156       -0.02534
H         -3.57856        0.23305       -0.74138
H         -0.89379        3.99507        0.22379
H         -0.10212        3.64597       -1.38380
H         -1.85497        2.05656       -1.89850
H         -2.62807        2.38549       -0.27149
