46
1774.log
C          1.66977        2.54843       -2.05809
C          2.03118        1.07504       -1.93306
P          1.95885        0.43145       -0.20103
C          3.22897        1.44905        0.63255
C          2.90976       -1.12204       -0.51414
O          2.94170       -1.74015       -1.54915
O          3.48963       -1.49873        0.61393
N          4.23884       -2.71576        0.59137
Rh         0.01776        0.06611        0.95106
Cl        -0.13840        2.44880        0.79694
C         -2.60873        1.93585       -1.58422
C         -1.86245        0.73466       -2.14672
P         -1.25677       -0.46406       -0.87171
C         -0.58158       -1.79859       -1.92871
C         -2.86232       -1.30595       -0.47168
O         -3.10546       -2.47219       -0.64686
O         -3.70817       -0.43117        0.04958
N         -5.02043       -0.90245        0.36502
C         -0.45472        0.30860        3.12355
C         -1.59567        0.01600        2.31044
H          1.60824        2.82998       -3.10773
H          0.71451        2.75349       -1.58164
H          2.42099        3.17261       -1.58042
H          1.35343        0.46205       -2.53437
H          3.05036        0.89427       -2.29331
H          3.53621        0.95657        1.55444
H          2.76982        2.40816        0.87218
H          4.09102        1.59566       -0.01838
H          4.14320       -3.08561       -0.35921
H          3.77163       -3.34606        1.24135
H          0.80153        0.30062        2.25136
H          0.24051       -1.42911        1.10858
H         -1.99912        2.44739       -0.84311
H         -2.83895        2.63516       -2.38571
H         -3.53885        1.63165       -1.11222
H         -2.49143        0.17586       -2.84915
H         -0.96733        1.07081       -2.67957
H         -1.12333       -1.85925       -2.87192
H          0.48008       -1.64300       -2.11335
H         -0.70553       -2.73547       -1.38622
H         -5.13550       -0.77271        1.36857
H         -5.01886       -1.90403        0.15064
H         -0.13126       -0.44907        3.83206
H         -0.36167        1.32426        3.49896
H         -2.29737        0.82495        2.12480
H         -2.06588       -0.95523        2.44469
