48
1794.log
C          1.04799        0.71898        2.54577
P          1.62926       -0.38760        1.20868
C          2.22276       -1.81533        2.19431
C          3.31648        0.32287        0.85154
C          3.20348        1.58032        0.05377
O          2.77855        2.60880        0.52845
C          3.65448        1.51428       -1.39763
O          3.97349        0.24033       -1.87407
Rh         0.28910       -0.94235       -0.54198
Cl        -0.88744       -1.89958        1.36418
C         -2.31505        1.47076       -1.85360
P         -1.14363        0.96630       -0.52129
C         -0.18649        2.54028       -0.59862
C         -2.11580        1.31117        1.03819
C         -3.59433        1.28366        0.80906
O         -4.31197        2.23735        0.98237
C         -4.12510       -0.06606        0.35043
O         -3.15095       -0.84475       -0.27896
C         -0.79836       -2.63116       -1.72161
C         -0.82756       -1.51475       -2.50525
H          0.13832        0.30006        2.97247
H          1.81641        0.77466        3.31628
H          0.84948        1.71694        2.16333
H          2.74969       -2.51107        1.54314
H          2.89293       -1.46442        2.97888
H          1.37597       -2.32915        2.64323
H          3.90348       -0.42921        0.32157
H          3.76756        0.54980        1.82018
H          4.57013        2.11180       -1.47500
H          2.89004        2.00600       -2.01627
H          3.16755       -0.29817       -1.90104
H          1.28975       -2.07179       -0.61621
H          1.14560       -0.25690       -1.57055
H         -1.73846        1.62335       -2.76596
H         -3.08376        0.72689       -2.03523
H         -2.78451        2.41165       -1.56749
H          0.30172        2.59328       -1.57116
H         -0.85696        3.39309       -0.49323
H          0.58599        2.59195        0.16297
H         -1.86189        0.51547        1.74455
H         -1.82182        2.28071        1.44350
H         -4.54821       -0.57115        1.22995
H         -4.94203        0.09722       -0.36105
H         -2.59821       -1.30309        0.39241
H         -0.09223       -3.43079       -1.91353
H         -1.66190       -2.89848       -1.12498
H         -1.73195       -0.92809       -2.55963
H         -0.13799       -1.40634       -3.33448
