40
1818.log
C         -1.56765        1.56426        2.07676
P         -1.40703        0.90530        0.36265
Cl        -0.79455        2.53301       -0.56746
C         -3.17275        0.92048       -0.17941
C         -4.03260       -0.06662        0.60347
N         -5.26140       -0.31991       -0.12817
Rh        -0.25261       -1.02868        0.03108
Cl         0.20977       -0.27282       -2.18562
C          2.07030       -0.52126        2.60004
P          1.77298       -0.29287        0.79855
Cl         3.35984       -1.21218        0.07160
C          2.31050        1.46654        0.63723
C          2.62578        1.86500       -0.80413
N          2.82365        3.30753       -0.85953
C         -0.82720       -2.99633       -0.88512
C          0.53481       -2.92444       -0.46800
H         -1.97639        0.78399        2.71335
H         -2.21588        2.43942        2.08647
H         -0.58266        1.83927        2.45047
H         -3.56401        1.93909       -0.08988
H         -3.18567        0.63657       -1.23699
H         -3.49867       -1.02017        0.69318
H         -4.20157        0.32037        1.62326
H         -5.82796       -1.01174        0.34892
H         -5.80919        0.53031       -0.21031
H         -1.53211       -1.65939       -0.52813
H         -0.60617       -1.51918        1.42821
H          3.08065       -0.21210        2.86236
H          1.34276        0.06251        3.15895
H          1.93435       -1.57282        2.84464
H          3.19023        1.62670        1.26749
H          1.49754        2.09313        1.01533
H          3.55905        1.38914       -1.11712
H          1.82687        1.50560       -1.46857
H          3.14485        3.57350       -1.78414
H          1.93741        3.77935       -0.70274
H         -1.49678       -3.65161       -0.33530
H         -1.02557       -2.96102       -1.95255
H          1.28767       -2.84772       -1.24787
H          0.84089       -3.53448        0.37828
