32
1823.log
C          1.67060        1.70132        1.53335
P          1.46058        0.51964        0.16596
N          3.06514       -0.38932        0.28972
O          3.13340       -1.40983       -0.34546
O          3.93995        0.11702        0.94089
N          2.14367        1.54105       -1.23648
O          2.76299        2.53638       -0.97689
O          1.94145        1.05155       -2.31531
Rh        -0.12991       -1.00743       -0.39167
Cl         0.74948       -1.26445        1.89478
C         -2.52708        0.29585        2.05793
P         -1.81176        0.23711        0.38749
N         -3.36562        0.31579       -0.55079
O         -4.13736       -0.56211       -0.25076
O         -3.47226        1.13218       -1.42304
N         -1.40759        2.03116        0.18624
O         -2.24322        2.80624        0.56434
O         -0.32610        2.29769       -0.28415
C          0.04569       -3.16419       -0.97794
C         -1.25696       -2.81427       -0.54172
H          0.83652        1.61965        2.22735
H          1.73183        2.71097        1.12744
H          2.59981        1.45743        2.05277
H          0.97148       -1.84824       -1.00559
H         -0.44285       -0.61100       -1.81063
H         -3.05472        1.23649        2.22932
H         -1.72592        0.15909        2.78471
H         -3.21952       -0.54429        2.14206
H          0.19381       -3.39202       -2.02827
H          0.67695       -3.73729       -0.30442
H         -1.57064       -3.14670        0.44539
H         -2.05756       -2.78139       -1.27532
