40
1826.log
C         -2.33469       -0.98634       -2.18495
P         -1.37786       -0.63779       -0.67121
C         -0.91606       -2.36103       -0.24049
C         -2.61450       -0.37884        0.69480
Br        -4.14771       -1.54578        0.57939
N         -3.18783        0.93722        0.49450
O         -3.85103        1.42026        1.36997
O         -3.09909        1.35487       -0.64220
Rh         0.10683        1.08956       -0.77788
Cl        -0.88843        1.87419        1.29112
C          1.50320       -0.74102        2.00666
P          1.77222        0.46909        0.66720
C          2.59416        1.79497        1.62523
C          3.28302       -0.28320       -0.21336
Br         2.82024       -2.04481       -0.78490
N          4.38541       -0.33032        0.71217
O          4.43978       -1.24817        1.49493
O          5.13097        0.62458        0.68872
C         -0.08293        3.10573       -1.75585
C          1.13692        2.95873       -1.06297
H         -1.60336       -1.33044       -2.91726
H         -2.81365       -0.08418       -2.55836
H         -3.07383       -1.76963       -2.01953
H         -1.77109       -3.02069       -0.39137
H         -0.10259       -2.67706       -0.89087
H         -0.59035       -2.43603        0.79448
H         -2.20240       -0.48302        1.70070
H         -0.95857        1.66128       -1.68384
H          0.75501        0.50175       -2.01055
H          2.40457       -0.87572        2.60715
H          1.19230       -1.70554        1.61095
H          0.71036       -0.33103        2.63371
H          1.80792        2.38926        2.09046
H          3.19149        2.43604        0.97705
H          3.22770        1.38100        2.41016
H          3.54560        0.32846       -1.07900
H         -0.07205        3.12021       -2.84045
H         -0.86482        3.70943       -1.30585
H          1.24461        3.49930       -0.12794
H          2.05249        2.88121       -1.64360
