40
1833.log
C         -0.66572       -0.91948        2.57799
P         -1.29333       -0.18571        1.01877
C         -2.28934       -1.63154        0.44229
Br        -3.22566       -1.17362       -1.18234
C         -2.61042        0.87490        1.77797
C         -3.71452        1.26983        0.85035
O         -4.87232        1.03378        1.05263
Rh        -0.00522        0.90566       -0.51203
Cl         0.29674        2.56403        1.20989
C          2.57935        0.03072        1.82877
P          2.09133        0.25298        0.07636
C          2.71979       -1.32646       -0.64682
Br         1.57063       -2.72089        0.02088
C          3.46169        1.40418       -0.47067
C          4.78850        0.97116        0.04770
O          5.41346        0.03631       -0.37946
C         -0.62437        2.45602       -2.01970
C          0.77166        2.22123       -2.00930
H         -1.50132       -1.29875        3.16677
H          0.01089       -1.74296        2.35553
H         -0.14691       -0.14711        3.14363
H         -3.03991       -1.92194        1.17965
H         -1.63035       -2.47026        0.21160
H         -2.07526        1.77947        2.09360
H         -3.03061        0.36618        2.65098
H         -3.38837        1.83315       -0.04488
H         -1.35615        1.43917       -0.95354
H         -0.13555       -0.19066       -1.54391
H          3.64566       -0.18434        1.90101
H          2.01819       -0.78435        2.28104
H          2.34733        0.95528        2.35757
H          3.74263       -1.56771       -0.35580
H          2.61853       -1.32554       -1.73247
H          3.19690        2.40036       -0.11368
H          3.45724        1.37687       -1.56407
H          5.17528        1.57042        0.89342
H         -1.20589        2.11164       -2.86887
H         -0.98918        3.37348       -1.56742
H          1.39678        2.99820       -1.57934
H          1.20754        1.72090       -2.87018
