42
1835.log
C          3.39323       -1.42584        0.53341
N          2.98231       -0.04388        0.75041
P          1.69786        0.56235       -0.18944
C          1.65838        2.22734        0.56699
C          2.67214        0.92637       -1.73226
O          3.84890        1.62290       -1.44715
Rh        -0.17648       -0.74740       -0.40155
Cl         0.15430       -1.16428        1.97014
C         -3.55810        0.26584       -2.00462
N         -3.34981        0.37184       -0.56915
P         -1.81409        0.78983        0.00289
C         -1.58800        2.55624       -0.50322
C         -2.26197        1.06521        1.78510
O         -1.13799        1.48587        2.49865
C         -0.33616       -2.96816       -0.67414
C         -1.59239       -2.31342       -0.45624
H          3.55255       -1.59453       -0.53217
H          2.65611       -2.14767        0.89946
H          4.33321       -1.59661        1.06023
H          2.71748        0.06933        1.72879
H          2.67421        2.51149        0.83937
H          1.01843        2.21885        1.44861
H          1.26731        2.93417       -0.16090
H          2.06038        1.55301       -2.38705
H          2.87332       -0.01608       -2.26700
H          4.27197        1.17767       -0.69907
H          0.76340       -1.93188       -0.71267
H         -0.29322       -0.47890       -1.88645
H         -3.68767        1.23619       -2.49478
H         -2.68737       -0.22178       -2.44079
H         -4.44290       -0.34350       -2.19580
H         -4.08476        0.92261       -0.13178
H         -1.04562        2.60889       -1.44517
H         -2.56694        3.02282       -0.61774
H         -1.03254        3.07881        0.27085
H         -2.69223        0.14052        2.19451
H         -3.00896        1.86573        1.84824
H         -0.55402        0.69826        2.57156
H         -0.15809       -3.40247       -1.65418
H          0.05667       -3.57379        0.13906
H         -2.06863       -2.46064        0.50962
H         -2.29761       -2.29465       -1.28037
