46
1837.log
C         -4.39455        0.26845        0.87156
O         -3.51450       -0.34510       -0.04761
C         -2.71047       -1.36759        0.48027
C         -2.27381       -1.24756        1.85041
N         -1.91314       -1.29371        2.93602
P         -1.19959       -1.31376       -0.62735
C         -0.33967       -2.83547       -0.05701
C         -1.98269       -1.92916       -2.16577
Rh        -0.25904        0.75281       -0.81317
Cl        -1.17434        1.50301        1.26795
C          3.51755       -2.07550       -1.61611
O          2.66775       -1.47411       -0.66714
C          3.09216       -0.19578       -0.24657
C          4.19774       -0.24428        0.67227
N          5.05799       -0.29172        1.42668
P          1.54361        0.51282        0.55867
C          2.24479        2.03617        1.29855
C          1.45495       -0.56486        2.03010
C         -1.05694        2.58198       -1.80242
C          0.24827        2.76006       -1.25347
H         -5.05607       -0.47011        1.33949
H         -3.84025        0.80647        1.64628
H         -4.98581        0.97428        0.29120
H         -3.21745       -2.35104        0.39631
H         -0.89802       -3.72223       -0.35660
H          0.65416       -2.85593       -0.49838
H         -0.24555       -2.81641        1.02785
H         -1.21183       -2.00718       -2.93048
H         -2.73244       -1.20964       -2.49047
H         -2.44688       -2.90285       -2.00933
H         -1.53409        1.07988       -1.59089
H          0.43910        0.29527       -2.08184
H          3.58712       -1.46479       -2.52400
H          4.52354       -2.23042       -1.20990
H          3.07469       -3.03902       -1.86262
H          3.36136        0.44272       -1.10627
H          2.57677        2.72055        0.51860
H          3.08320        1.78539        1.94866
H          1.45755        2.51082        1.88259
H          0.50157       -0.39814        2.53154
H          1.52623       -1.60495        1.71918
H          2.27555       -0.32890        2.70784
H         -1.16345        2.58523       -2.88345
H         -1.88601        3.04785       -1.27768
H          0.31982        3.37684       -0.36267
H          1.07326        2.89578       -1.94907
