44
1845.log
C         -1.94025        2.95562        0.54465
C         -2.02699        2.07603       -0.69661
P         -1.86088        0.29315       -0.27893
C         -2.53632       -0.46016       -1.83898
N         -1.54979       -0.07435       -2.82436
N         -3.38030        0.06848        0.67864
O         -4.27933        0.85661        0.49571
O         -3.43241       -0.91979        1.37094
Rh        -0.06203       -0.67408        0.71525
Cl         0.12650       -2.19655       -1.14837
C          1.84569        2.71396        1.72062
C          1.77723        2.44738        0.22439
P          1.56421        0.65825       -0.21906
C          1.76072        0.79133       -2.09988
N          2.15980       -0.37018       -2.82511
N          3.26220        0.22687        0.21753
O          3.49505        0.19380        1.40496
O          4.06977        0.04484       -0.66426
C          0.12782       -2.45779        2.08142
C          1.37046       -1.86567        1.75971
H         -1.81162        3.99886        0.26526
H         -1.10430        2.65555        1.17413
H         -2.85423        2.87272        1.12830
H         -1.21632        2.28998       -1.39837
H         -2.97753        2.23001       -1.21269
H         -3.50674       -0.00125       -2.05834
H         -2.65993       -1.54511       -1.70688
H         -1.91670       -0.13510       -3.76704
H         -0.76137       -0.71759       -2.75285
H         -1.07385       -1.62269        1.33445
H         -0.20277        0.23800        1.91243
H          2.72154        2.24207        2.16040
H          1.90252        3.78454        1.90493
H          0.96666        2.31896        2.22551
H          0.91825        2.96080       -0.21690
H          2.68234        2.81606       -0.26936
H          2.48389        1.59415       -2.28733
H          0.77263        1.10960       -2.45722
H          3.11222       -0.63592       -2.59921
H          1.54929       -1.16147       -2.63353
H         -0.26794       -2.32935        3.08342
H         -0.12410       -3.40824        1.62012
H          2.01925       -2.39996        1.06909
H          1.90174       -1.31437        2.53026
