50
1854.log
C         -4.91301       -0.24657       -1.29325
N         -3.91594       -0.17127       -0.24481
C         -4.43584       -0.57058        1.04400
C         -3.28591        1.12624       -0.17172
P         -1.64488        0.89213        0.63594
C         -1.82574        1.80575        2.23004
N         -0.73246        2.22415       -0.14913
O         -1.35366        3.12023       -0.67028
O          0.47360        2.23030        0.04369
Rh        -0.51522       -0.99455        0.18215
Cl        -0.70796        0.17732       -1.92920
C          3.93675        2.43511       -0.45493
N          3.83539        0.98972       -0.50029
C          4.95655        0.39086       -1.19746
C          2.54784        0.55276       -0.99121
P          1.57948       -0.08875        0.45672
C          2.15750        0.82324        1.92982
N          2.66455       -1.50935        0.76394
O          2.76321       -1.87881        1.91155
O          3.17669       -2.06008       -0.18618
C         -1.15865       -2.90901       -0.76808
C          0.25457       -2.77447       -0.66832
H         -4.44169       -0.01719       -2.24716
H         -5.30416       -1.26206       -1.33578
H         -5.75139        0.44682       -1.13338
H         -3.60594       -0.61672        1.75466
H         -5.19835        0.12463        1.42857
H         -4.87692       -1.56284        0.96453
H         -3.88644        1.87813        0.37029
H         -3.08566        1.49220       -1.18354
H         -2.49896        1.25283        2.88189
H         -2.22746        2.80462        2.04912
H         -0.85319        1.87549        2.71700
H         -1.86505       -1.66183       -0.06346
H         -0.46702       -1.59740        1.56834
H          4.01509        2.87740       -1.45835
H          3.05350        2.83951        0.03355
H          4.82157        2.71427        0.11726
H          5.87777        0.68551       -0.69536
H          4.87077       -0.69326       -1.15547
H          5.01660        0.70458       -2.24950
H          1.97915        1.34383       -1.48504
H          2.63785       -0.28803       -1.68670
H          1.88869        0.23406        2.80584
H          1.68904        1.80013        1.97571
H          3.23951        0.92951        1.86503
H         -1.64300       -3.66162       -0.15421
H         -1.61428       -2.77598       -1.74531
H          0.81087       -2.56927       -1.58026
H          0.77637       -3.43371        0.02002
