30
1855.log
C          2.29744       -0.88396        2.08987
P          1.65572       -0.37263        0.44650
Cl         3.27057        0.38065       -0.39115
C          1.68997       -2.07237       -0.33074
F          1.52185       -1.99847       -1.67897
Rh        -0.15558        1.02290        0.41797
Cl         0.09459        1.16995       -1.94754
C         -3.49455       -0.06184       -0.19462
P         -1.74081       -0.55112        0.05274
Cl        -1.51166       -1.79688       -1.44935
C         -2.01862       -1.75730        1.45316
F         -0.80667       -2.28996        1.81560
C         -0.28523        3.25445        0.45578
C         -1.55201        2.60854        0.34227
H          1.54465       -1.49364        2.58252
H          3.22667       -1.44154        1.98747
H          2.47124        0.00956        2.68514
H          0.89198       -2.69943        0.07934
H          2.67220       -2.52958       -0.15049
H          0.83556        2.16899        0.62613
H         -0.32500        0.91709        1.92951
H         -3.83170        0.53450        0.64972
H         -4.11680       -0.94924       -0.30539
H         -3.55640        0.53748       -1.10136
H         -2.41526       -1.23510        2.32828
H         -2.66724       -2.59005        1.16047
H         -0.06263        3.78552        1.37639
H          0.11572        3.72659       -0.43614
H         -2.04340        2.66145       -0.62501
H         -2.23010        2.68102        1.18872
