50
1873.log
C          4.26216       -0.88285       -0.85983
C          3.80897       -0.99027        0.58929
C          3.08976        0.26064        1.07397
P          1.57750        0.76579        0.11828
N          2.31013        1.90884       -0.90206
N          0.79430        1.86724        1.12804
C          1.53939        2.91806        1.80780
Rh         0.09860       -0.85458       -0.50622
Cl        -0.04619       -1.15699        1.87535
C         -3.75066       -1.07261        1.58513
C         -3.86798        0.42613        1.35143
C         -2.50895        1.06655        1.08917
P         -1.68804        0.57440       -0.51802
N         -2.91176        0.17434       -1.59610
N         -1.45440        2.15903       -1.08407
C         -1.01555        2.28376       -2.46563
C          0.29148       -3.06321       -0.75326
C         -1.05418       -2.58880       -0.87279
H          4.81551       -1.77234       -1.15421
H          3.39552       -0.78932       -1.51547
H          4.90783       -0.01684       -0.99640
H          4.67505       -1.16719        1.23318
H          3.14138       -1.84859        0.69895
H          3.75955        1.12587        1.05944
H          2.74334        0.09415        2.09828
H          2.94181        1.46525       -1.55822
H          1.61057        2.42586       -1.42466
H          0.22408        1.33285        1.77991
H          2.08721        2.56358        2.68495
H          2.24574        3.35364        1.10371
H          0.83742        3.69020        2.12854
H          1.24572       -1.87024       -0.53989
H          0.26873       -0.62651       -1.99690
H         -4.71687       -1.50530        1.83830
H         -3.37373       -1.56430        0.69081
H         -3.05271       -1.27384        2.39417
H         -4.29949        0.89517        2.24051
H         -4.55330        0.62160        0.52100
H         -2.60405        2.15544        1.05707
H         -1.84277        0.79057        1.90658
H         -3.69560        0.81784       -1.55592
H         -3.21462       -0.78801       -1.54232
H         -0.79122        2.61180       -0.45565
H         -0.88018        3.33890       -2.70463
H         -0.08749        1.73955       -2.67687
H         -1.79149        1.87044       -3.10651
H          0.77296       -3.45466       -1.64536
H          0.54522       -3.61300        0.14936
H         -1.72423       -2.84036       -0.05487
H         -1.51779       -2.65100       -1.85430
