46
188.log
C          2.91672       -0.22648        3.42023
C          2.32300       -0.86719        2.17119
N          2.79611       -0.21900        0.96340
C          4.19003       -0.45931        0.63771
P          1.78167        0.55236       -0.10121
C          2.83228        1.92409       -0.72587
Br         1.97181       -0.71610       -1.94150
Rh        -0.32766        1.25259        0.49643
Cl        -0.43667        2.06742       -1.75011
C         -4.82970        0.32724       -0.51759
C         -4.20895       -1.04962       -0.29715
N         -2.95595       -1.01364        0.43378
C         -3.09506       -0.97441        1.87698
P         -1.46071       -0.60850       -0.20038
C         -1.69703       -0.93100       -1.98123
Br        -0.35941       -2.49417        0.30954
C         -1.04097        3.25686        1.17318
C         -2.09272        2.32284        0.94509
H          3.99929       -0.32441        3.43493
H          2.66011        0.83051        3.45254
H          2.51354       -0.71123        4.30490
H          2.56439       -1.93544        2.13612
H          1.23606       -0.77254        2.20541
H          4.32798       -0.55171       -0.44127
H          4.50492       -1.40084        1.08838
H          4.83544        0.34099        1.00936
H          2.26467        2.45824       -1.48885
H          3.04451        2.60084        0.10247
H          3.76459        1.56598       -1.16109
H          0.35928        2.54607        0.94661
H         -0.26185        0.75240        1.92789
H         -4.16524        0.94944       -1.11378
H         -5.01478        0.82837        0.42981
H         -5.77514        0.22607       -1.04439
H         -4.05524       -1.53488       -1.26180
H         -4.89621       -1.67724        0.27944
H         -3.40203       -1.95810        2.24426
H         -3.83562       -0.23629        2.19353
H         -2.13677       -0.72291        2.33420
H         -0.73024       -0.85287       -2.47931
H         -2.35135       -0.17211       -2.40642
H         -2.09919       -1.93218       -2.13954
H         -0.84261        3.56521        2.19526
H         -0.90123        4.04578        0.44028
H         -2.70429        2.47894        0.06103
H         -2.64991        1.97348        1.80970
