38
1881.log
C          3.73148       -1.22314        0.48700
C          3.20044       -0.09761       -0.34596
O          3.73533        0.36949       -1.31199
P          1.51487        0.52414        0.22998
C          2.00719        0.96487        1.93874
N          1.65077        2.12199       -0.59443
O          2.42624        2.90863       -0.12195
O          0.97293        2.26964       -1.57847
Rh        -0.01293       -1.01920       -0.49227
Cl         0.12340       -1.85895        1.76155
C         -2.28828        2.26688       -1.56512
C         -2.89628        1.02894       -1.02928
O         -3.93176        0.52107       -1.35203
P         -1.87766        0.03377        0.22648
C         -3.20049       -0.76417        1.17488
N         -1.44792        1.37816        1.30788
O         -2.11495        1.60557        2.28801
O         -0.47770        2.03438        0.94818
C          0.20736       -3.08937       -1.31003
C         -1.14931       -2.69973       -1.09978
H          4.31789       -1.90436       -0.12667
H          4.39185       -0.80655        1.24752
H          2.91824       -1.75175        0.98471
H          1.99833        0.05481        2.53537
H          1.30115        1.67587        2.36092
H          3.00063        1.41252        1.92046
H          1.13690       -1.90277       -0.98258
H         -0.08098       -0.43185       -1.88392
H         -2.82552        2.59930       -2.45057
H         -2.33144        3.05099       -0.80786
H         -1.23301        2.10332       -1.79594
H         -2.74993       -1.44068        1.90188
H         -3.80534       -0.01361        1.68542
H         -3.81774       -1.32749        0.47487
H          0.54466       -3.22164       -2.33352
H          0.63223       -3.80343       -0.60933
H         -1.67054       -3.15175       -0.26005
H         -1.77479       -2.53466       -1.97281
