28
1889.log
C         -1.58207       -1.11624        1.85495
P         -1.62918       -0.22239        0.26287
Cl        -3.43378        0.59766        0.35004
C         -2.15289       -1.60863       -0.88532
O         -2.17178       -1.50036       -2.07120
Rh         0.14519        1.04310       -0.41031
Cl         0.96267        1.06006        1.87967
C          3.05362       -0.98467       -1.29847
P          1.46775       -0.79665       -0.39218
Cl         0.62337       -2.55448       -0.70562
C          2.06569       -1.03043        1.37492
O          1.58712       -1.87865        2.08721
C          0.57290        3.21666       -0.64070
C          1.67846        2.36678       -0.97153
H         -1.60077       -0.38265        2.66097
H         -0.65557       -1.68658        1.93795
H         -2.44752       -1.77528        1.93725
H         -2.52507       -2.51601       -0.36400
H         -0.64950        2.35171       -0.27016
H         -0.29179        0.91751       -1.85181
H          3.54897       -1.90573       -0.98909
H          2.85041       -1.01345       -2.36785
H          3.68734       -0.12751       -1.07707
H          3.01539       -0.52036        1.59851
H          0.09981        3.76701       -1.44825
H          0.63729        3.77700        0.28818
H          2.51478        2.35891       -0.27657
H          1.97829        2.31751       -2.01524
