40
1892.log
C          3.82230       -0.47993       -0.49893
C          3.03061        0.74887       -0.91828
C          2.80983        0.79779       -2.42282
P          1.38500        0.81764       -0.02554
F          1.05469        2.31778       -0.52440
C          2.12739        1.26199        1.60852
O          2.56544        0.49920        2.41371
Rh        -0.02434       -0.96516       -0.46349
Cl        -0.25760       -1.20366        1.96495
C         -2.00374        2.69374       -0.92828
C         -2.89629        1.54812       -0.48043
C         -3.71617        0.97605       -1.63158
P         -1.85251        0.18229        0.20241
F         -3.06090       -0.68713        0.84007
C         -1.11132        0.82590        1.76206
O         -0.15572        1.60711        1.68123
C          0.34435       -3.13413       -0.78811
C         -1.04372       -2.76734       -0.79469
H          3.37569       -1.38090       -0.91814
H          4.84623       -0.41250       -0.86216
H          3.84772       -0.57825        0.58564
H          3.56562        1.65513       -0.60097
H          3.76360        0.81054       -2.94730
H          2.25094        1.68997       -2.69750
H          2.24500       -0.07524       -2.74803
H          2.16677        2.36247        1.72761
H          1.19089       -1.89162       -0.64325
H         -0.05243       -0.66224       -1.93922
H         -1.32074        2.35234       -1.70505
H         -1.41044        3.07085       -0.09793
H         -2.60440        3.50901       -1.32707
H         -3.55846        1.86925        0.33470
H         -4.36098        1.74213       -2.05776
H         -4.33805        0.15082       -1.28843
H         -3.05147        0.60728       -2.41193
H         -1.73194        0.78578        2.66978
H          0.77233       -3.48402       -1.72322
H          0.71085       -3.67775        0.07938
H         -1.64326       -3.06029        0.06332
H         -1.57748       -2.83981       -1.73801
