40
1895.log
C          2.74951       -0.51724        1.88889
P          1.60515        0.33482        0.73642
C          1.07251        1.71519        1.80770
C          2.80254        1.25722       -0.34149
O          2.82441        2.46214       -0.38844
C          3.66727        0.40323       -1.23768
F          3.43825       -0.92170       -0.98362
Rh         0.03381       -0.93115       -0.34209
Cl        -0.65490       -1.12865        1.95735
C         -2.65325        0.56347       -2.18839
P         -1.35298        0.79043       -0.91102
C         -0.56210        2.29845       -1.58134
C         -2.30821        1.56421        0.49017
O         -2.08122        2.69623        0.83937
C         -3.22822        0.63822        1.22495
F         -3.61672       -0.38509        0.39970
C         -0.17362       -3.14659       -0.53627
C         -1.32036       -2.41948       -0.98243
H          3.44618        0.20236        2.31981
H          2.12791       -0.94358        2.67697
H          3.28955       -1.31784        1.38923
H          0.61864        1.28480        2.69943
H          1.93953        2.31917        2.07633
H          0.33505        2.34308        1.31095
H          4.72950        0.60333       -1.05828
H          3.42946        0.58918       -2.29054
H          0.93211       -2.14981       -0.10653
H          0.60420       -0.80495       -1.73868
H         -3.23628        1.47886       -2.28796
H         -2.14194        0.35177       -3.12720
H         -3.30553       -0.26949       -1.94345
H         -1.28157        3.11647       -1.61282
H          0.29260        2.59448       -0.97580
H         -0.21036        2.07160       -2.58719
H         -4.12270        1.13900        1.60455
H         -2.65352        0.17686        2.04710
H          0.41848       -3.67003       -1.28137
H         -0.25602       -3.67920        0.40746
H         -2.20571       -2.44644       -0.35331
H         -1.53630       -2.42555       -2.04725
