42
1896.log
C          2.06654        2.81052        2.07645
C          0.93920        1.88492        1.63584
P          1.36354        0.69711        0.27396
Cl         1.95914        1.94504       -1.14070
C          3.02585        0.12306        0.88625
C          3.71781       -0.69604       -0.16425
O          4.10721       -0.27330       -1.21914
O          3.87330       -1.96895        0.20817
Rh         0.03903       -1.03550       -0.38040
Cl         0.29899       -1.35397        1.97557
C         -3.82229        1.30173        1.76742
C         -2.43928        0.69027        1.59475
P         -2.07212       -0.10591       -0.03272
Cl        -3.70974       -1.22574       -0.21627
C         -2.58804        1.19493       -1.26845
C         -1.47032        2.18502       -1.34207
O         -1.13489        2.87979       -0.41384
O         -0.86433        2.18851       -2.51810
C          0.17325       -3.29305       -0.72569
C         -1.14823       -2.94361       -0.58821
H          2.55346        3.27404        1.22042
H          2.80732        2.28966        2.67795
H          1.64371        3.60476        2.68851
H          0.11864        2.49005        1.24616
H          0.58407        1.28527        2.47508
H          3.62995        1.00957        1.08894
H          2.86778       -0.46990        1.78743
H          4.30192       -2.48321       -0.49480
H          1.40735       -1.52143       -0.74140
H         -0.05645       -0.72559       -1.85833
H         -4.60999        0.60294        1.49480
H         -3.96025        1.57433        2.81161
H         -3.92682        2.20659        1.17327
H         -1.67556        1.45103        1.75142
H         -2.26930       -0.10258        2.33141
H         -2.73095        0.71402       -2.23699
H         -3.51245        1.66419       -0.93022
H         -0.06073        2.73832       -2.50131
H          0.58080       -3.51194       -1.70603
H          0.71869       -3.70396        0.11764
H         -1.64793       -3.11587        0.35976
H         -1.79045       -2.90622       -1.46128
