50
1937.log
C          2.53861       -0.29699       -1.87896
P          1.86511       -0.71126       -0.22446
C          3.17304       -1.86722        0.33578
C          2.27465        0.80073        0.83688
C          2.90594        1.89159        0.06904
O          2.37547        2.51535       -0.81153
C          4.37052        2.22407        0.45976
N          5.15409        0.99479        0.50428
O          5.30183        0.46179        1.57898
O          5.54215        0.54994       -0.55255
Rh        -0.26485       -1.52963        0.00058
Cl        -0.69310       -0.08976        1.88985
C         -1.10170       -0.09570       -3.12699
P         -1.32609        0.02952       -1.31264
C         -0.82192        1.76325       -1.03626
C         -3.18938        0.15945       -1.34995
C         -3.93962        0.00925       -0.06317
O         -4.76731       -0.84999        0.10612
C         -3.62613        0.98771        1.05872
N         -3.88981        2.39163        0.74883
O         -3.53864        2.82739       -0.32658
O         -4.45133        3.03660        1.59979
C         -1.03079       -3.29317        1.15956
C         -2.03779       -2.62088        0.41097
H          2.03816        0.56954       -2.30456
H          3.61145       -0.10977       -1.82485
H          2.35808       -1.16063       -2.51762
H          3.03639       -2.80442       -0.20300
H          3.06639       -2.05917        1.40292
H          4.17185       -1.48662        0.12953
H          2.87057        0.46268        1.68608
H          1.29584        1.13152        1.20793
H          4.77881        2.89462       -0.29868
H          4.36992        2.68865        1.44798
H          0.36580       -2.56567        0.93565
H         -0.00392       -2.41801       -1.19335
H         -0.04166       -0.03782       -3.36212
H         -1.47912       -1.05538       -3.47446
H         -1.63070        0.71278       -3.62932
H          0.22520        1.87523       -1.31530
H         -0.91678        2.02111        0.01613
H         -1.43631        2.43879       -1.62837
H         -3.40410        1.14893       -1.76603
H         -3.54637       -0.61659       -2.03350
H         -2.54917        0.86141        1.31517
H         -4.21983        0.72895        1.94031
H         -0.71210       -4.27651        0.82817
H         -1.04751       -3.18041        2.23984
H         -2.76790       -2.05353        0.97776
H         -2.45727       -3.13042       -0.45145
