42
194.log
C         -4.69463       -1.57462       -0.43771
O         -3.43326       -0.91242       -0.40055
C         -2.96720       -0.57688        0.79485
O         -3.49749       -0.81112        1.84374
P         -1.33990        0.30408        0.57426
C         -1.22984        0.95354        2.27609
C         -2.00537        1.71110       -0.41859
Cl        -3.54874        2.26166        0.26116
Rh         0.15685       -1.09096       -0.45964
Cl         0.62580        0.56915       -2.15999
C          2.53619        3.74854       -0.92868
O          2.72654        2.37481       -0.59755
C          1.72389        1.76478        0.00315
O          0.73447        2.30536        0.44019
P          2.03148       -0.04660        0.22757
C          3.62734       -0.28628       -0.61508
C          2.59247       -0.00584        1.99597
Cl         3.06460       -1.67475        2.36747
C         -0.13320       -2.69258       -1.97937
C          1.22572       -2.53921       -1.56200
H         -4.66550       -2.47015        0.18555
H         -4.87509       -1.83304       -1.47798
H         -5.47581       -0.90822       -0.06731
H         -2.18922        1.39287        2.55001
H         -1.02670        0.10647        2.93217
H         -0.43625        1.69157        2.34863
H         -2.17933        1.38144       -1.44541
H         -1.30269        2.54316       -0.40119
H         -1.04809       -1.70284       -1.17825
H          0.00782       -2.06865        0.68497
H          3.50346        4.12109       -1.25557
H          2.17848        4.30250       -0.05880
H          1.80424        3.82844       -1.73446
H          3.95756       -1.31166       -0.45003
H          4.36659        0.41485       -0.22821
H          3.47985       -0.11512       -1.68084
H          1.77558        0.26958        2.66463
H          3.45870        0.64060        2.15495
H         -0.65421       -3.60031       -1.68993
H         -0.39133       -2.33898       -2.97427
H          1.91233       -2.09807       -2.27954
H          1.66516       -3.33623       -0.96787
