50
1945.log
C         -5.10177       -0.97604       -0.43244
C         -3.70291       -1.45080       -0.07716
O         -3.12933       -0.52763        0.85832
P         -1.65225        0.07032        0.72197
C         -1.77909        1.03570        2.27297
C         -1.88784        1.35360       -0.65614
C         -2.28894        2.67674       -0.12912
O         -3.38495        3.01215        0.22359
O         -1.22879        3.52951       -0.04357
Rh         0.05679       -1.38875        0.29626
Cl        -0.80318       -1.36262       -1.93987
C          4.94660       -1.52731        0.72273
C          3.78067       -0.60554        1.03764
O          3.17604       -0.20745       -0.19050
P          1.62149        0.14347       -0.32799
C          1.74875        0.67086       -2.06923
C          1.50137        1.75864        0.63296
C          2.34570        2.81266       -0.01951
O          3.53836        2.86683        0.08795
O          1.67679        3.68972       -0.78650
C          0.09211       -3.62509        0.17654
C          1.32410       -3.00066       -0.20076
H         -5.55781       -1.67188       -1.13096
H         -5.71494       -0.91526        0.46303
H         -5.06330        0.01042       -0.88765
H         -3.74686       -2.43068        0.41082
H         -3.08029       -1.52965       -0.97438
H         -2.72639        1.57127        2.28469
H         -0.94562        1.71969        2.39990
H         -1.76600        0.31504        3.08834
H         -2.67549        0.93522       -1.28412
H         -0.96649        1.41753       -1.23040
H         -1.52433        4.38430        0.30940
H         -0.89389       -2.54435        0.65761
H          0.55761       -1.36796        1.73071
H          4.59707       -2.41224        0.19702
H          5.66199       -1.00967        0.08987
H          5.43830       -1.82889        1.64332
H          3.04160       -1.11008        1.67316
H          4.13928        0.29345        1.54980
H          2.59651        1.34483       -2.17679
H          1.91728       -0.22732       -2.66203
H          0.83196        1.13788       -2.41852
H          0.45679        2.05003        0.71042
H          1.88941        1.52113        1.62588
H          0.71386        3.57511       -0.73529
H          0.08431       -4.21898        1.08614
H         -0.52014       -4.04022       -0.61964
H          1.57750       -3.00095       -1.25785
H          2.18021       -3.15779        0.44867
