48
1952.log
C          3.15366        2.52708       -0.00462
C          3.40194        1.06724       -0.40600
C          4.75544        0.92366       -0.90745
N          5.83468        0.82324       -1.26992
N          3.20443        0.11596        0.66838
P          1.68277       -0.47625        1.09654
C          1.24181        0.46637        2.62140
C          2.23426       -2.02375        1.91145
Rh         0.14258       -0.87514       -0.55348
Cl        -1.15500       -1.63647        1.32589
C         -4.81051       -0.35400       -0.59413
C         -3.61641        0.31559        0.08633
C         -4.10739        1.31077        1.01872
N         -4.50413        2.09374        1.75155
N         -2.75046        0.98849       -0.89706
P         -1.08035        1.06587       -0.60283
C         -0.67993        2.24871       -1.94265
C         -1.13434        2.19649        0.83694
C         -0.27550       -2.78901       -1.61454
C         -1.21256       -1.75672       -1.92027
H          3.79018        2.80624        0.83365
H          3.36515        3.19229       -0.83873
H          2.11084        2.64107        0.28556
H          2.70404        0.78394       -1.20772
H          3.82264        0.28136        1.45683
H          2.03923        0.33717        3.35437
H          0.31438        0.06615        3.02365
H          1.11497        1.52531        2.41145
H          1.36748       -2.53199        2.32971
H          2.94361       -1.80032        2.70838
H          2.71135       -2.66729        1.17366
H          0.85951       -2.22374       -0.64573
H          0.99081       -0.38426       -1.70475
H         -5.36741        0.37430       -1.18204
H         -4.47243       -1.15517       -1.24902
H         -5.47459       -0.77932        0.15474
H         -3.05417       -0.43271        0.67218
H         -2.92070        0.61168       -1.82567
H          0.33753        2.61012       -1.81157
H         -0.74293        1.74463       -2.90516
H         -1.38064        3.08091       -1.91403
H         -1.89857        2.95066        0.65427
H         -0.16602        2.67550        0.96484
H         -1.38365        1.63905        1.73796
H          0.40398       -3.11132       -2.39781
H         -0.61200       -3.59464       -0.96775
H         -2.20897       -1.87362       -1.50185
H         -1.20548       -1.35319       -2.93046
