40
1958.log
C         -2.75088        1.39304       -1.65792
C         -3.06784        0.58244       -0.40376
C         -3.41893       -0.78296       -0.70056
N         -3.67751       -1.88220       -0.88185
P         -1.64954        0.41480        0.80547
C         -2.61082        0.04654        2.32816
C         -1.40284        2.14404        1.13915
N         -1.22061        3.23616        1.43520
Rh         0.10543       -0.99044        0.43262
Cl        -0.21115       -0.80316       -1.91995
C          2.76921        0.74833       -2.20797
C          2.25381        1.55426       -1.01602
C          1.02283        2.23902       -1.31176
N          0.03154        2.77754       -1.49818
P          1.83184        0.48117        0.45751
C          1.96855        1.71839        1.80558
C          3.44136       -0.24789        0.65580
N          4.47393       -0.72464        0.79360
C          0.13313       -3.21250        0.09906
C          1.42360       -2.61377        0.05321
H         -1.93389        0.93944       -2.21455
H         -2.45826        2.40490       -1.38583
H         -3.62943        1.43445       -2.29992
H         -3.90092        1.04435        0.14805
H         -1.92781        0.00996        3.17607
H         -3.07561       -0.93387        2.21215
H         -3.37535        0.80267        2.50912
H         -0.94588       -2.10619        0.41868
H          0.28927       -1.16721        1.93664
H          3.68027        0.21773       -1.93396
H          2.01742        0.02834       -2.52856
H          2.98586        1.41421       -3.04159
H          3.00023        2.29397       -0.69152
H          2.95022        2.19334        1.79371
H          1.82161        1.21209        2.75949
H          1.19118        2.47399        1.68501
H         -0.10327       -3.85493        0.94184
H         -0.31014       -3.53106       -0.83996
H          1.89969       -2.52423       -0.92000
H          2.11714       -2.82969        0.86231
