42
1959.log
C          4.40521        1.01917        0.53474
C          3.37720       -0.07058        0.25596
C          3.73872       -0.85191       -1.00369
P          1.65091        0.58219        0.04186
C          1.52947        1.87904        1.32405
F          1.95732        1.59078       -1.21053
Rh        -0.03684       -0.91127       -0.22414
Cl        -0.37571       -0.60124        2.13036
C         -3.69736        0.14511        0.93949
C         -2.94175        1.29025        0.27837
C         -2.36165        2.23497        1.31937
P         -1.62082        0.59471       -0.82358
C         -1.10950        2.06998       -1.77743
F         -2.64767        0.00679       -1.94269
C         -0.17877       -3.12345        0.10260
C         -1.41784       -2.50267       -0.25579
H          4.26136        1.46523        1.51555
H          5.40604        0.59099        0.50506
H          4.34919        1.79778       -0.22379
H          3.32478       -0.75778        1.10915
H          2.96739       -1.58534       -1.23922
H          3.82759       -0.17129       -1.84829
H          4.68622       -1.37203       -0.87556
H          1.67999        1.41902        2.29693
H          2.27008        2.65310        1.13560
H          0.52968        2.30720        1.30218
H          0.91138       -2.06710        0.14189
H          0.25466       -1.10396       -1.69983
H         -3.03889       -0.37528        1.63202
H         -4.55056        0.52599        1.49832
H         -4.05856       -0.55874        0.19068
H         -3.61526        1.83490       -0.39782
H         -1.67964        1.68816        1.96774
H         -1.83394        3.06641        0.85400
H         -3.16070        2.64241        1.93666
H         -1.98681        2.63382       -2.08979
H         -0.44746        2.69475       -1.18486
H         -0.56283        1.72330       -2.65244
H          0.28469       -3.78667       -0.62275
H         -0.07563       -3.46412        1.12951
H         -2.16815       -2.42293        0.52483
H         -1.83032       -2.72027       -1.23700
