50
1969.log
C          5.13959       -0.22192       -0.47680
C          4.37901       -0.72670        0.74665
O          3.19104       -1.42095        0.43262
C          2.17166       -0.61290       -0.10193
P          0.60183       -1.59239       -0.07092
C          0.63972       -2.43088        1.56247
C          1.12773       -2.96086       -1.16569
Rh        -1.24878       -0.45268       -0.72531
Cl        -2.54783       -1.49191        0.99591
C          1.79209        3.11086       -1.86883
C          2.01793        3.26817       -0.36758
O          1.21650        2.40530        0.41495
C         -0.13655        2.77365        0.53172
P         -1.04720        1.19776        0.90868
C         -2.55834        1.93382        1.65396
C         -0.21669        0.73082        2.47230
C         -3.02390       -0.33500       -2.07818
C         -3.02494        0.78158       -1.26448
H          5.30944       -1.04011       -1.17237
H          6.09931        0.18177       -0.16625
H          4.58179        0.56091       -0.98511
H          4.14985        0.11848        1.41477
H          4.98902       -1.45196        1.29232
H          2.36002       -0.35498       -1.15443
H          2.05710        0.32193        0.46082
H          0.70472       -3.50446        1.39722
H          1.50327       -2.10049        2.13477
H         -0.28322       -2.21795        2.09813
H          2.07932       -3.35262       -0.80802
H          0.36687       -3.74010       -1.14714
H          1.22998       -2.58840       -2.18386
H         -1.34280       -1.64583       -1.63827
H         -0.41080        0.24482       -1.77841
H          1.83746        2.05804       -2.13674
H          2.55854        3.65519       -2.41357
H          0.81972        3.49569       -2.16578
H          1.85466        4.31219       -0.06314
H          3.04700        2.99162       -0.11797
H         -0.52950        3.19242       -0.40268
H         -0.26700        3.52138        1.33181
H         -3.22373        1.12135        1.94154
H         -2.28327        2.50524        2.54008
H         -3.06356        2.58868        0.94607
H         -0.12940        1.60391        3.11886
H          0.77016        0.32090        2.27609
H         -0.83625       -0.02583        2.95221
H         -2.71408       -0.25952       -3.11502
H         -3.69733       -1.15541       -1.85328
H         -3.72255        0.81009       -0.43656
H         -2.73016        1.74671       -1.66616
