30
1974.log
C         -3.55866       -0.22529       -0.16992
P         -1.80684       -0.63962       -0.48527
F         -2.08372       -1.44013       -1.89011
C         -1.66303       -2.17183        0.55836
F         -0.37267       -2.36660        0.96382
Rh        -0.18966        0.93785       -0.35615
Cl        -1.06118        0.61318        1.85370
C          2.14932       -0.95961        1.65149
P          1.53654       -0.48394        0.00408
F          1.50660       -1.92049       -0.72866
C          3.13427        0.05278       -0.77955
F          4.14112       -0.80489       -0.42374
C         -0.35253        3.14363       -0.11471
C          0.95856        2.62749        0.15152
H         -3.89952        0.44886       -0.95368
H         -3.65009        0.26163        0.79640
H         -4.15152       -1.13869       -0.19614
H         -1.96118       -3.04430       -0.03333
H         -2.27282       -2.06959        1.46148
H         -1.25544        2.01576       -0.60867
H          0.20931        1.03833       -1.81455
H          2.84343       -1.78970        1.53514
H          2.65418       -0.09940        2.08669
H          1.31951       -1.24679        2.29001
H          3.42179        1.05391       -0.44931
H          3.03748        0.02265       -1.86900
H         -0.47269        3.78532       -0.98225
H         -0.94679        3.45443        0.74054
H          1.27542        2.60873        1.19197
H          1.74837        2.91091       -0.53868
