40
1979.log
C         -4.71790        0.51907       -1.17545
O         -3.39132        0.77338       -0.70644
C         -2.92408        0.03098        0.28046
O         -3.51320       -0.79511        0.91227
P         -1.16303        0.53014        0.64258
C         -1.46175        1.55449        2.12728
C         -1.00356        1.79733       -0.69750
O         -1.14670        2.96954       -0.49810
Rh         0.18680       -1.26530        0.59468
Cl        -1.10202       -1.37108       -1.44779
C          1.46690        3.44968        1.02677
O          1.41065        2.06215        0.69450
C          1.82070        1.70994       -0.50763
O          2.20752        2.43017       -1.38426
P          1.82546       -0.14908       -0.58828
C          2.12995       -0.40890       -2.37213
C          3.56515       -0.27912        0.02856
O          4.06121        0.42526        0.85658
C          0.40584       -3.47752        0.72906
C          1.50061       -2.99724        0.03713
H         -5.09157       -0.41026       -0.74490
H         -4.66816        0.44365       -2.26044
H         -5.35687        1.35317       -0.88404
H         -2.05616        0.96331        2.82519
H         -0.50843        1.80120        2.58973
H         -1.99271        2.46528        1.84538
H         -0.79240        1.38143       -1.70176
H         -0.93600       -1.81685        1.43398
H          0.89238       -1.05582        1.91428
H          1.51787        3.50940        2.11108
H          2.34793        3.90459        0.57230
H          0.56683        3.94425        0.65298
H          1.17955       -0.64542       -2.85243
H          2.81772       -1.24277       -2.51606
H          2.54784        0.50542       -2.79647
H          4.12497       -1.12389       -0.43178
H          0.51352       -3.80095        1.75845
H         -0.42264       -3.91901        0.18308
H          1.52458       -3.08795       -1.04510
H          2.46763       -2.95295        0.52825
