46
1982.log
C         -2.58772        2.66832        3.08217
C         -2.66508        2.09558        1.67412
C         -3.48076        0.79640        1.65222
C         -3.59046        0.25082        0.26722
O         -4.60153        0.16786       -0.37294
P         -1.97996       -0.35886       -0.54256
C         -2.71017       -1.30629       -1.91839
Br        -1.56553        1.51899       -1.64113
Rh        -0.27168       -1.25499        0.68306
Cl        -0.26867       -3.06102       -0.87454
C          3.90983        3.14681        0.79865
C          2.45676        3.56018        0.60323
C          1.53020        2.34631        0.52796
C          1.71457        1.55520       -0.72618
O          2.07741        1.96752       -1.78932
P          1.41880       -0.31189       -0.54523
C          1.65886       -0.82772       -2.27716
Br         3.46292       -0.62611        0.20357
C         -0.23497       -2.80111        2.32467
C          1.05241       -2.35359        1.90698
H         -3.58260        2.88349        3.46447
H         -2.10350        1.96401        3.75478
H         -2.01436        3.59165        3.07895
H         -1.65258        1.88564        1.31890
H         -3.12079        2.82423        1.00061
H         -2.96852        0.05313        2.27237
H         -4.48369        0.97238        2.04718
H         -1.94953       -1.49150       -2.67781
H         -3.55691       -0.76052       -2.33950
H         -3.04137       -2.26902       -1.52795
H         -1.30976       -2.02195        1.52591
H         -0.26128       -0.11203        1.68986
H          4.54147        4.02631        0.88922
H          4.26146        2.56162       -0.04731
H          4.02471        2.54570        1.69818
H          2.13880        4.19217        1.43428
H          2.35607        4.13279       -0.31987
H          0.48692        2.67997        0.51392
H          1.66212        1.69215        1.39685
H          2.49207       -0.27511       -2.71536
H          1.84091       -1.90276       -2.30927
H          0.74741       -0.60944       -2.83567
H         -0.57757       -2.51888        3.31593
H         -0.54337       -3.79669        2.01945
H          1.65322       -3.04270        1.31799
H          1.63485       -1.75067        2.60018
