44
1990.log
C          1.64607        0.71505        2.97451
N          2.43404        0.48790        1.77150
P          1.75054        0.58650        0.24247
C          1.66551        2.40516        0.01289
C          3.32565        0.19848       -0.67731
C          3.37629        0.62886       -2.11089
O          4.20486       -0.40560       -0.11755
Rh         0.04255       -0.73028       -0.55513
Cl        -0.12557       -1.86318        1.54521
C         -3.60249       -1.12924        1.19906
N         -3.28939       -0.13626        0.16604
P         -1.71749        0.51865        0.19226
C         -1.71690        1.23851        1.86775
C         -2.02597        2.07686       -0.78339
C         -2.90050        1.94562       -1.98950
O         -1.46996        3.09387       -0.45183
C          0.10325       -2.72246       -1.56983
C         -1.22013       -2.20254       -1.42703
H          1.15413        1.68364        2.89616
H          0.89503       -0.06026        3.14360
H          2.32550        0.73875        3.82684
H          2.94357       -0.39434        1.83518
H          0.80380        2.80937        0.54050
H          1.53274        2.62643       -1.04365
H          2.58240        2.85357        0.39275
H          4.05091       -0.00691       -2.68059
H          3.75490        1.65008       -2.14517
H          2.37556        0.61240       -2.53906
H          1.15257       -1.69298       -1.00549
H          0.09294        0.01451       -1.88101
H         -3.71502       -0.61879        2.15338
H         -2.83330       -1.89695        1.31354
H         -4.54915       -1.60616        0.94879
H         -3.44509       -0.55557       -0.74919
H         -2.71244        1.62992        2.07560
H         -1.44345        0.47111        2.58936
H         -0.98996        2.04746        1.89860
H         -2.55444        1.10117       -2.58391
H         -3.91676        1.73955       -1.65730
H         -2.88458        2.85701       -2.58286
H          0.52261       -2.78268       -2.57001
H          0.38455       -3.55337       -0.92903
H         -1.86180       -2.70013       -0.70532
H         -1.73749       -1.90095       -2.33568
