38
1991.log
C         -2.44944        2.49917       -1.61706
C         -1.55596        1.26882       -1.61298
P         -1.41358        0.44667        0.02635
Br        -3.53836       -0.10346        0.36301
O         -1.32245        1.77891        0.90765
C         -1.21478        1.78521        2.32035
Rh         0.09426       -1.24438        0.33344
Cl        -0.30525       -1.72737       -1.97227
C          3.24831       -0.02732        2.38550
C          3.48228       -0.27953        0.90582
P          1.97369       -0.02458       -0.12232
Br         1.80564        2.18570        0.09102
O          2.76643       -0.11312       -1.50699
C          2.23475        0.22644       -2.78366
C         -0.07072       -3.45084        0.70446
C          1.26642       -3.00175        0.49301
H         -3.45970        2.25474       -1.29256
H         -2.04549        3.26734       -0.96229
H         -2.50512        2.89931       -2.62725
H         -0.53947        1.53333       -1.91954
H         -1.91854        0.50650       -2.30888
H         -2.19015        1.59017        2.77298
H         -0.49881        1.03471        2.66766
H         -0.86625        2.77953        2.59509
H         -1.02731       -2.22853        0.68130
H          0.25717       -0.94737        1.81656
H          4.14847       -0.25579        2.95223
H          2.43953       -0.65397        2.76032
H          2.98901        1.01506        2.56686
H          4.26089        0.38051        0.51193
H          3.79668       -1.31218        0.73290
H          3.01286       -0.01784       -3.50491
H          2.01917        1.29772       -2.83022
H          1.33345       -0.34919       -3.00163
H         -0.34279       -3.79653        1.69725
H         -0.54981       -4.00258       -0.09917
H          1.73441       -3.25451       -0.45517
H          1.94600       -3.03567        1.34097
