46
1999.log
C         -5.45887       -0.21633        1.10770
C         -4.83619        1.16681        0.90866
C         -3.74824        1.09513       -0.13317
O         -3.81278        1.58259       -1.22958
O         -2.69474        0.39771        0.30678
P         -1.32671        0.10593       -0.60315
C         -2.07715       -0.81004       -2.01420
N         -0.99832        1.64681       -1.16751
Rh         0.30712       -0.82978        0.64575
Cl         0.44082       -2.72674       -0.82824
C          1.57483        3.78743        1.12398
C          2.88076        3.35210        0.45088
C          2.86797        1.85230        0.34490
O          3.21281        1.08757        1.20605
O          2.36720        1.41277       -0.81436
P          1.92437       -0.20518       -0.81359
C          1.62537       -0.26018       -2.61842
N          3.43208       -0.94547       -0.82936
C          0.33045       -2.15524        2.43631
C          1.63346       -1.79133        1.95737
H         -6.23184       -0.16954        1.87030
H         -4.69978       -0.92824        1.42179
H         -5.90699       -0.56811        0.18125
H         -4.39383        1.50741        1.84563
H         -5.58909        1.88204        0.57692
H         -2.77141       -0.17243       -2.55824
H         -1.28476       -1.16110       -2.66962
H         -2.59757       -1.67986       -1.61769
H         -1.61092        2.00297       -1.89201
H         -0.02104        1.82936       -1.34194
H         -0.72852       -1.46564        1.59162
H          0.33893        0.41123        1.50784
H          0.71492        3.44989        0.54959
H          1.54166        4.87075        1.20534
H          1.51003        3.35712        2.11986
H          2.95790        3.78636       -0.54575
H          3.73143        3.66058        1.05846
H          0.77488        0.35155       -2.90748
H          1.43893       -1.29220       -2.90145
H          2.52986        0.10171       -3.10413
H          3.30221       -1.92160       -1.08044
H          3.87155       -0.89911        0.08623
H          0.01804       -1.75919        3.39854
H          0.01206       -3.18143        2.26826
H          2.20988       -2.57938        1.47761
H          2.23341       -1.12838        2.57462
