44
2003.log
C         -1.09937       -3.29779        0.34473
P         -0.01648       -1.82273        0.35392
N          0.30383       -1.77364        2.00952
C          1.54715       -2.59053       -0.25442
C          2.72412       -1.61393       -0.23375
N          3.94423       -2.09961       -0.85080
Rh        -0.91037        0.01880       -0.67913
Cl        -2.63743       -0.27149        0.99792
C         -0.48753        3.33594        0.45444
P          0.03540        1.58165        0.68976
N         -0.27466        1.27095        2.31511
C          1.85874        1.81586        0.81521
C          2.49901        2.25719       -0.49418
N          3.94539        2.14320       -0.39446
C         -2.49272        0.14395       -2.24989
C         -2.09734        1.41715       -1.72066
H         -2.08233       -3.00989        0.71486
H         -0.66886       -4.05804        0.99506
H         -1.19840       -3.67940       -0.67042
H          0.85248       -0.95259        2.25698
H         -0.58829       -1.68471        2.49415
H          1.36269       -2.91855       -1.28254
H          1.75526       -3.46524        0.36860
H          2.42477       -0.70302       -0.76038
H          2.96360       -1.35860        0.80268
H          3.77639       -2.32830       -1.82555
H          4.25927       -2.94668       -0.38830
H         -1.65020       -0.94896       -1.62164
H          0.19180        0.14460       -1.70517
H         -0.25393        3.66765       -0.55336
H          0.02633        3.96865        1.17929
H         -1.56398        3.40505        0.60714
H         -1.20041        0.84574        2.40239
H         -0.20944        2.09047        2.91088
H          2.28492        0.85762        1.12192
H          2.06764        2.54016        1.60675
H          2.06405        1.66205       -1.31694
H          2.26497        3.30793       -0.68676
H          4.21110        1.16977       -0.27728
H          4.38463        2.47752       -1.24544
H         -2.24426       -0.07089       -3.28574
H         -3.46992       -0.23248       -1.95771
H         -2.81523        1.92006       -1.07781
H         -1.56960        2.09214       -2.38921
