44
2006.log
C          1.69489       -2.99804       -0.58174
P          1.34323       -1.25810       -0.12406
C          2.04002       -1.22382        1.56512
C          2.71771       -0.41183       -1.05093
N          2.87975        0.94872       -0.61483
C          3.94227        1.32867        0.10858
O          4.88002        0.62590        0.40896
Rh        -0.83618       -0.66765       -0.53042
Cl        -1.22390       -2.19157        1.27618
C          0.13466        1.69694        2.08587
P         -1.13846        1.07748        0.92118
C         -2.44310        0.76840        2.17797
C         -1.89556        2.65491        0.23042
N         -1.51142        2.93319       -1.12997
C         -0.21835        2.91886       -1.45550
O          0.66977        2.77335       -0.64146
C         -2.36164       -1.77053       -1.72279
C         -2.89725       -0.64446       -1.01965
H          2.72310       -3.25437       -0.32857
H          1.00978       -3.63791       -0.02628
H          1.53184       -3.14132       -1.64977
H          1.33603       -1.70410        2.24260
H          2.21082       -0.19647        1.87790
H          2.98914       -1.75934        1.56848
H          3.66151       -0.93294       -0.85680
H          2.49207       -0.44344       -2.12270
H          2.09921        1.58551       -0.74433
H          3.88103        2.39449        0.39794
H         -0.83135       -1.84374       -1.51092
H         -0.50456        0.24607       -1.69467
H          1.04488        1.96934        1.56133
H         -0.25341        2.56198        2.62318
H          0.33713        0.89581        2.79560
H         -2.54447        1.63017        2.83756
H         -3.39684        0.55862        1.69895
H         -2.15361       -0.10767        2.75512
H         -1.58723        3.48761        0.87320
H         -2.98068        2.55057        0.26869
H         -2.21655        2.93479       -1.84841
H         -0.02287        3.09161       -2.52580
H         -2.33367       -1.72601       -2.80821
H         -2.60411       -2.75585       -1.33463
H         -3.53125       -0.86854       -0.16652
H         -3.25191        0.19334       -1.61615
