44
2007.log
C          3.58606       -2.07234       -0.00918
C          2.93517       -1.34179        1.15703
P          1.52046       -0.28159        0.58768
C          1.30118        0.51223        2.16253
N          1.16933        0.99126        3.19358
C          2.57648        1.02309       -0.22008
O          3.43140        1.64144        0.34388
O          2.27554        1.07714       -1.50117
C          3.01290        2.00465       -2.29522
Rh        -0.24777       -1.39907       -0.34175
Cl        -1.39590       -0.90262        1.73773
C         -0.56212        1.78873       -2.92018
C         -1.87347        1.34636       -2.28928
P         -1.56959        0.38632       -0.73007
C         -3.26505        0.25466       -0.23420
N         -4.37629        0.14422        0.02086
C         -0.99547        1.74485        0.38207
O          0.18417        2.00745        0.46879
O         -1.97186        2.34245        1.01027
C         -1.61677        3.32089        1.99103
C         -0.81289       -3.55883       -0.24422
C         -1.77291       -2.74041       -0.92296
H          4.34540       -2.76311        0.35160
H          4.06053       -1.36497       -0.68735
H          2.84225       -2.63571       -0.57362
H          3.65546       -0.68845        1.66147
H          2.53825       -2.05337        1.88851
H          2.77825        3.02585       -1.99023
H          2.71419        1.83457       -3.32621
H          4.08446        1.83735       -2.17017
H          0.39875       -2.71582        0.12538
H          0.41976       -1.53997       -1.69590
H          0.08264        0.92435       -3.07320
H         -0.04080        2.48742       -2.26878
H         -0.74214        2.27232       -3.87825
H         -2.41698        0.67656       -2.96423
H         -2.52181        2.19905       -2.05802
H         -0.85935        2.91291        2.66252
H         -2.53201        3.54764        2.53095
H         -1.22370        4.21400        1.50201
H         -0.27530       -4.29627       -0.83352
H         -1.07658       -3.90556        0.75155
H         -2.70901       -2.54225       -0.40642
H         -1.88920       -2.88341       -1.99413
