48
2022.log
C          2.35296       -0.24452        2.13501
C          2.31535        0.55248        0.83374
C          3.66068        1.03316        0.38705
O          3.88010        2.10626       -0.11352
O          4.65264        0.14348        0.58009
P          1.50815       -0.47132       -0.52014
C          2.55223       -1.97931       -0.46871
C          2.16123        0.35478       -2.02249
Rh        -0.72929       -1.05408       -0.58232
Cl        -0.48442       -2.28874        1.45911
C         -2.68627        3.25554        0.75385
C         -2.23449        2.09974       -0.13764
C         -1.00956        2.51444       -0.89740
O          0.10885        2.40695       -0.46176
O         -1.26980        3.03497       -2.09465
P         -1.73614        0.51981        0.73458
C         -0.94835        1.10314        2.27844
C         -3.35905        0.02906        1.43728
C         -1.59739       -2.87936       -1.52911
C         -2.57553       -2.04159       -0.91433
H          1.43212       -0.81413        2.24771
H          2.46424        0.42172        2.98860
H          3.18568       -0.94234        2.13183
H          1.68315        1.43978        0.91509
H          5.49404        0.52700        0.28698
H          3.59912       -1.73249       -0.30546
H          2.19348       -2.62171        0.33413
H          2.44118       -2.50592       -1.41695
H          1.93688        1.41649       -1.95713
H          1.66713       -0.06643       -2.89640
H          3.23796        0.21738       -2.10824
H         -0.17469       -2.20566       -1.42280
H         -0.93225       -0.24080       -1.84506
H         -3.01094        4.08923        0.13309
H         -3.52122        2.95475        1.38174
H         -1.86945        3.59628        1.38529
H         -3.02624        1.84893       -0.85141
H         -0.44720        3.27148       -2.55316
H         -0.64139        0.21419        2.82781
H         -1.66221        1.66887        2.87504
H         -0.07595        1.71057        2.05880
H         -3.20267       -0.88434        2.00922
H         -3.74448        0.80056        2.10196
H         -4.07605       -0.16511        0.64243
H         -1.60187       -2.96132       -2.61225
H         -1.34518       -3.80633       -1.02202
H         -3.02013       -2.40974        0.00494
H         -3.27532       -1.52487       -1.56638
