46
2027.log
C         -0.62890        1.10663       -3.08017
P         -0.20653        1.36452       -1.30822
C          0.23072        3.14759       -1.32952
C         -1.92908        1.48408       -0.63106
O         -1.77407        1.31322        0.75941
C         -2.87655        1.65711        1.53022
O         -3.91949        0.72552        1.46961
Rh         1.31980        0.06269       -0.16356
Cl         1.23206        1.69953        1.55931
C         -0.56289       -0.87765        2.67002
P         -0.06146       -1.34026        0.96248
C          0.63218       -3.01063        1.29748
C         -1.73074       -1.78543        0.23132
O         -1.81385       -1.58441       -1.16551
C         -1.47461       -2.70190       -1.93450
O         -0.19569       -3.17333       -1.71803
C          3.59353        0.47196       -0.14924
C          3.07099       -0.64421        0.67580
H         -1.33323        1.86366       -3.42288
H          0.27904        1.15911       -3.67749
H         -1.06898        0.11958       -3.19538
H          1.18620        3.27519       -1.83859
H          0.34108        3.47724       -0.29716
H         -0.53361        3.73651       -1.83630
H         -2.55094        0.69379       -1.07398
H         -2.36800        2.47041       -0.85605
H         -2.53558        1.66806        2.56840
H         -3.24412        2.66306        1.24934
H         -4.30345        0.72381        0.58433
H          2.63605        0.94327       -0.71920
H          1.46798       -0.92500       -1.31195
H         -1.61507       -0.60913        2.69665
H          0.02167       -0.01116        2.97230
H         -0.37178       -1.70059        3.35540
H          0.87908       -3.51093        0.36514
H          1.53556       -2.89367        1.89248
H         -0.09446       -3.60478        1.85153
H         -1.97260       -2.82634        0.48204
H         -2.47676       -1.12640        0.68094
H         -1.62674       -2.38079       -2.97805
H         -2.14765       -3.54598       -1.71172
H          0.42818       -2.43031       -1.79962
H          4.27194        0.17964       -0.94983
H          3.98721        1.30875        0.42524
H          3.15241       -0.49112        1.75078
H          3.41730       -1.63589        0.38572
