42
2034.log
C         -2.02171        2.14939       -1.62899
C         -2.07131        1.98720       -0.11521
P         -1.89766        0.23206        0.45407
C         -2.63288        0.38980        2.13095
C         -3.29347       -0.53982       -0.44614
Rh         0.06934       -0.93887        0.29327
Cl        -0.12923       -0.66184       -2.08168
C          2.50315        1.55816       -1.90317
C          1.81189        2.09233       -0.65629
P          1.52676        0.79009        0.62292
C          3.25774        0.33683        1.03361
C          1.17769        1.85143        2.08379
C          0.40934       -3.10262       -0.14179
C          1.61484       -2.33698       -0.03925
H         -1.18742        1.59020       -2.04695
H         -2.93478        1.77783       -2.08744
H         -1.91074        3.19993       -1.89426
H         -3.02140        2.36488        0.27901
H         -1.26391        2.56188        0.34795
H         -2.70888       -0.60324        2.57003
H         -3.62143        0.84450        2.08034
H         -1.98252        0.99403        2.76006
H         -2.98764       -0.70703       -1.47784
H         -3.52365       -1.50070        0.01434
H         -4.17297        0.10351       -0.41578
H         -0.80042       -2.19518        0.13510
H          0.12826       -1.17807        1.79115
H          2.57293        2.34016       -2.65729
H          3.50885        1.20988       -1.67804
H          1.92947        0.73300       -2.31955
H          0.83570        2.49992       -0.92943
H          2.40381        2.89093       -0.19512
H          3.85511        1.23669        1.18022
H          3.25220       -0.25288        1.94879
H          3.68752       -0.26316        0.23495
H          1.14190        1.21512        2.96607
H          1.95784        2.60174        2.20652
H          0.21392        2.34401        1.97512
H          0.20889       -3.83701        0.63373
H          0.11120       -3.42906       -1.13444
H          2.15318       -2.14646       -0.96414
H          2.26346       -2.54167        0.80850
