50
2036.log
C          2.71364        1.27659       -2.20804
C          2.57745        1.56859       -0.75807
O          3.00732        2.54612       -0.19863
P          1.68765        0.25437        0.26109
C          1.27005        1.23966        1.74903
C          3.17510       -0.67302        0.86118
C          4.30903        0.18895        1.40482
C          5.25091        0.64912        0.33223
O          5.24136        0.27245       -0.80666
Rh         0.01332       -1.08315       -0.55946
Cl         0.07878       -1.80048        1.73290
C         -2.79913       -0.24020        2.12592
C         -2.43742        0.93232        1.30703
O         -2.62123        2.09119        1.58827
P         -1.59002        0.52997       -0.33085
C         -1.06002        2.21028       -0.85014
C         -3.10980        0.32526       -1.37353
C         -4.15589        1.42644       -1.21896
C         -5.18010        1.11118       -0.16627
O         -5.29915        0.05817        0.39226
C         -0.03383       -3.24376       -1.12629
C         -1.32886       -2.63226       -1.05696
H          1.79036        0.84184       -2.58706
H          2.99390        2.16728       -2.76539
H          3.50433        0.53189       -2.31358
H          0.22521        1.54891        1.69907
H          1.90404        2.12548        1.79977
H          1.39982        0.61428        2.63139
H          3.54569       -1.28142        0.02937
H          2.78531       -1.34547        1.63196
H          3.94211        1.06649        1.93957
H          4.91013       -0.38532        2.11827
H          6.00626        1.37442        0.68770
H          1.03456       -2.19697       -0.85017
H          0.09431       -0.65095       -2.00983
H         -3.41070       -0.92188        1.53482
H         -1.87792       -0.78126        2.37492
H         -3.32740        0.05214        3.03004
H         -1.61793        2.97011       -0.30183
H          0.00285        2.33596       -0.64173
H         -1.21724        2.31873       -1.92263
H         -3.56161       -0.63906       -1.12383
H         -2.74389        0.26842       -2.40279
H         -4.70991        1.56020       -2.15422
H         -3.70928        2.39241       -0.97845
H         -5.86375        1.95442        0.04650
H          0.32653       -3.55101       -2.10398
H          0.23005       -3.93626       -0.33150
H         -1.95913       -2.91270       -0.21666
H         -1.87271       -2.51441       -1.99036
