40
2037.log
C          1.55837        1.02898        1.87400
P          1.46200        0.29072        0.19791
C          3.16738       -0.39443       -0.05191
C          4.27410        0.64715        0.00180
Cl         5.83647       -0.16269        0.32559
N          1.73945        1.81746       -0.76924
O          1.29921        2.86677       -0.33978
O          2.23597        1.65916       -1.86200
Rh        -0.31783       -0.88805       -0.60067
Cl         0.79744       -1.93226        1.30511
C         -2.27915       -1.02184        2.27538
P         -1.97273       -0.07850        0.73266
C         -2.08129        1.63100        1.43436
C         -1.83097        2.68173        0.36910
Cl        -2.71325        2.19222       -1.09900
N         -3.69530       -0.21607        0.14107
O         -3.88698       -0.81670       -0.88162
O         -4.54054        0.24115        0.87211
C         -0.22487       -2.75515       -1.85302
C         -1.47109       -2.58098       -1.19020
H          2.48245        0.70288        2.35034
H          1.52448        2.11620        1.80814
H          0.72481        0.67207        2.47473
H          3.30056       -1.12922        0.74703
H          3.19953       -0.92564       -1.00661
H          4.38516        1.16852       -0.94851
H          4.12900        1.37005        0.80661
H          0.68558       -1.50854       -1.57267
H         -0.78320       -0.06065       -1.76506
H         -2.47838       -2.06463        2.02688
H         -1.38019       -0.99306        2.88871
H         -3.12441       -0.60004        2.81916
H         -1.35906        1.73136        2.24724
H         -3.09181        1.73337        1.84536
H         -2.20181        3.66108        0.66913
H         -0.77739        2.75767        0.09848
H         -0.20711       -2.65700       -2.93363
H          0.45575       -3.50979       -1.46661
H         -1.67486       -3.22006       -0.33340
H         -2.34237       -2.35060       -1.79232
