50
2041.log
C          3.73637       -2.26692        1.78127
C          2.38050       -2.84878        2.16212
C          1.43637       -2.92503        0.96331
C          0.97367       -1.57848        0.49918
O          1.23248       -0.53346        1.04096
P         -0.05209       -1.50548       -1.05954
C         -0.57835       -3.21831       -1.45427
C          1.29292       -1.38043       -2.31951
O          2.38387       -0.91198       -2.13628
Rh        -1.64829        0.08667       -0.76462
Cl        -1.81222       -1.46628        1.11500
C          3.95897        2.59888       -2.18016
C          3.31224        2.74330       -0.80936
C          1.98673        1.99124       -0.74888
C          1.34601        2.00942        0.59489
O          1.83355        2.38185        1.62454
P         -0.46385        1.49948        0.60967
C         -1.12664        3.21270        0.72943
C         -0.68272        1.04896        2.39617
O         -1.57805        1.50405        3.04567
C         -3.85377       -0.03206       -1.09489
C         -3.44371        1.07720       -0.28598
H          4.39247       -2.24339        2.64751
H          4.21000       -2.86842        1.00738
H          3.62409       -1.25162        1.41044
H          1.92239       -2.23002        2.93508
H          2.51235       -3.85418        2.56761
H          0.53955       -3.49890        1.21397
H          1.92801       -3.42283        0.12114
H          0.26528       -3.90711       -1.46959
H         -1.31164       -3.53352       -0.71342
H         -1.05075       -3.20448       -2.43754
H          0.97594       -1.72203       -3.32793
H         -2.61320       -0.77115       -1.60583
H         -1.40939        0.97525       -1.96686
H          3.31987        3.02391       -2.95144
H          4.91676        3.11243       -2.20650
H          4.12131        1.54863       -2.41119
H          3.14203        3.79828       -0.58420
H          3.97653        2.34533       -0.04083
H          1.26307        2.38256       -1.47315
H          2.14904        0.94024       -1.00997
H         -1.20134        3.65315       -0.26330
H         -2.11391        3.17011        1.18796
H         -0.46586        3.81124        1.35782
H          0.05277        0.33599        2.80096
H         -4.27656        0.18710       -2.07103
H         -4.33582       -0.86554       -0.59020
H         -3.65394        1.01980        0.78015
H         -3.56549        2.07191       -0.70534
