46
2044.log
C          1.96290        1.69982       -2.77456
P          1.72574        0.55616       -1.35930
C          0.99627       -0.84529       -2.28565
C          3.51777        0.02798       -1.16044
N          3.88038       -0.45131        0.14815
C          4.05861       -1.77975        0.38982
Br         2.29785       -2.94923        0.43679
Rh         0.75283        1.60354        0.44298
Cl        -0.95916        2.25608       -1.12171
C         -2.31947        0.74885        1.85714
P         -0.73369        0.05709        1.26018
C         -0.24366       -0.97194        2.69031
C         -1.39008       -1.27279        0.15540
N         -1.95820       -0.72583       -1.05647
C         -3.09896       -1.28177       -1.54580
Br        -4.79918       -1.03765       -0.28212
C          0.98519        3.74551        1.05742
C          0.03200        3.02562        1.83925
H          2.48065        1.19561       -3.59035
H          0.97959        2.02429       -3.11151
H          2.53172        2.57514       -2.46310
H         -0.02430       -0.57649       -2.55333
H          0.97451       -1.74578       -1.67972
H          1.58204       -1.02210       -3.18776
H          3.76636       -0.72568       -1.91240
H          4.11494        0.92868       -1.35789
H          3.39514        0.06682        0.87951
H          4.61778       -2.28602       -0.39232
H          4.45504       -1.97836        1.38024
H          1.64970        2.77825        0.02072
H          1.80739        1.16530        1.43913
H         -3.01003       -0.05939        2.09615
H         -2.75823        1.37902        1.08442
H         -2.14040        1.35015        2.74683
H          0.08446       -0.32095        3.49863
H         -1.08650       -1.57477        3.02463
H          0.57853       -1.62342        2.40535
H         -2.15633       -1.81461        0.72996
H         -0.58335       -1.97920       -0.07793
H         -1.88883        0.29499       -1.11471
H         -3.06413       -2.36671       -1.60582
H         -3.44436       -0.81799       -2.46316
H          1.90814        4.05846        1.53717
H          0.60107        4.46810        0.34283
H         -1.01326        3.26799        1.67400
H          0.27823        2.83046        2.87969
