46
2052.log
C         -3.46116       -2.20645        1.68157
N         -2.51948       -1.39310        0.94555
C         -3.03667       -0.74782       -0.23559
C         -3.93585        0.46571       -0.01607
P         -1.48291       -0.32760       -1.15328
C         -2.09441       -0.01265       -2.85688
F         -1.01141       -1.85283       -1.42076
Rh         0.14037        1.05283       -0.35104
Cl        -1.01244        1.38243        1.71726
C          4.99515       -0.84915       -0.55708
N          3.65597       -0.40651       -0.21995
C          2.68810       -1.46488       -0.00850
C          2.24616       -2.23885       -1.24512
P          1.27411       -0.55690        0.76513
C          1.97826       -0.16296        2.39964
F          0.40346       -1.84642        1.21372
C          0.40788        3.26446       -0.44684
C          1.46932        2.57392        0.23315
H         -3.86046       -2.97494        1.01713
H         -4.30273       -1.64133        2.10664
H         -2.92877       -2.69587        2.49502
H         -2.10154       -0.69323        1.55654
H         -3.55150       -1.50882       -0.84205
H         -4.22414        0.90618       -0.96905
H         -3.40642        1.21022        0.57599
H         -4.83913        0.17676        0.51780
H         -1.24615       -0.03256       -3.53763
H         -2.80858       -0.78336       -3.14127
H         -2.56072        0.96764       -2.90435
H         -0.59058        2.26589       -0.96857
H          0.91261        0.85298       -1.64338
H          5.36033       -1.49330        0.24332
H          5.05943       -1.40123       -1.50349
H          5.64425        0.02312       -0.62203
H          3.30247        0.21002       -0.94845
H          3.09081       -2.15399        0.74499
H          1.85292       -1.54950       -1.99189
H          1.45321       -2.93198       -0.97418
H          3.07222       -2.80069       -1.67719
H          1.23883        0.38418        2.98109
H          2.23242       -1.09215        2.90639
H          2.86544        0.44697        2.25303
H          0.64431        3.74185       -1.39386
H         -0.27233        3.84658        0.16925
H          1.51854        2.70062        1.31096
H          2.44753        2.57130       -0.24050
