50
2089.log
C          4.81796        0.89833       -0.52006
C          4.25296        2.01302        0.36604
N          2.84010        1.89826        0.66198
C          1.94711        2.25756       -0.41571
P          0.34841        1.38138       -0.16206
C         -0.09030        2.01762        1.49139
N         -0.67014        2.35357       -1.09477
Rh         0.48082       -0.88526       -0.49020
Cl         1.28598       -1.10782        1.75174
C         -4.24213        3.08157       -0.04452
C         -4.23817        1.66334       -0.59759
N         -3.10027        0.91822       -0.07620
C         -3.07590       -0.46108       -0.50720
P         -1.62879       -1.38237        0.19466
C         -1.99758       -1.33933        1.98450
N         -2.25662       -2.92978       -0.11950
C          2.18178       -2.19250       -1.10753
C          0.97783       -2.91523       -0.82167
H          4.32117        0.87822       -1.48882
H          5.88201        1.04788       -0.68464
H          4.67385       -0.06538       -0.03505
H          4.78266        2.00598        1.32379
H          4.41836        2.98656       -0.10602
H          2.63616        0.95410        0.99229
H          2.32438        2.00023       -1.42308
H          1.75600        3.34056       -0.39522
H         -1.14958        1.85160        1.67165
H          0.50137        1.49986        2.24202
H          0.12611        3.08394        1.50907
H         -1.62738        2.03468       -0.91947
H         -0.47259        2.23223       -2.08428
H          1.92702       -0.68732       -0.95955
H         -0.00937       -0.73819       -1.92524
H         -5.05687        3.65061       -0.48375
H         -4.37395        3.06898        1.03556
H         -3.30262        3.57868       -0.27159
H         -4.14460        1.68753       -1.68839
H         -5.19435        1.16704       -0.35752
H         -3.13318        0.94486        0.94029
H         -2.98245       -0.48270       -1.59930
H         -3.98655       -1.02424       -0.23190
H         -1.76554       -0.36252        2.40140
H         -3.04125       -1.60576        2.14824
H         -1.34714       -2.06486        2.47146
H         -1.69012       -3.63329        0.34806
H         -2.22847       -3.12900       -1.11620
H          2.52658       -2.17070       -2.13793
H          2.98805       -2.27345       -0.38370
H          0.97401       -3.50832        0.08999
H          0.48253       -3.40476       -1.65813
