42
2097.log
C          1.91589        3.42164        1.63330
C          0.60420        2.65101        1.70719
P          0.14937        1.90816        0.08139
C         -0.07033        3.39418       -0.97049
C         -1.66730        1.56517        0.52012
O         -2.04552        1.34226        1.62802
O         -2.26350        1.64511       -0.60563
Cl        -4.03820        1.36329       -0.74679
Rh         1.27394        0.14424       -0.82752
Cl         2.91313        0.20233        0.91131
C          2.45568       -3.20162        1.36648
C          1.17288       -3.18609        0.54371
P          0.38930       -1.51421        0.45862
C          0.02098       -1.19940        2.21919
C         -1.25456       -2.19655       -0.24574
O         -1.26820       -2.98622       -1.13343
O         -2.12948       -1.60737        0.44849
Cl        -3.93695       -1.87845        0.16802
C          2.91032        0.08253       -2.36231
C          2.48527       -1.20679       -1.91482
H          2.71195        2.77055        1.27817
H          2.18726        3.77734        2.62472
H          1.83762        4.28176        0.97223
H          0.69930        1.82733        2.41933
H         -0.21847        3.29652        2.03168
H         -0.54205        3.09644       -1.90545
H         -0.68396        4.14036       -0.46540
H          0.91327        3.80955       -1.18858
H          2.06342        1.16373       -1.66556
H          0.20826        0.05160       -1.90323
H          2.96846       -4.15212        1.23401
H          3.12539       -2.39975        1.06560
H          2.24000       -3.07556        2.42469
H          1.36154       -3.50053       -0.48646
H          0.43646       -3.87420        0.97420
H          0.95777       -0.90110        2.69038
H         -0.36347       -2.10542        2.68799
H         -0.70815       -0.39638        2.32003
H          2.67428        0.36964       -3.38285
H          3.88269        0.42998       -2.02306
H          3.17513       -1.75658       -1.28143
H          1.93569       -1.82982       -2.61545
