42
2098.log
C          1.49208        3.63256        1.55495
C          0.28690        2.70507        1.65589
P         -0.06590        1.89144        0.03814
C         -0.55320        3.30852       -1.01303
C         -1.72729        1.13769        0.56513
O         -1.76468        0.30986        1.42733
O         -2.60341        1.67731       -0.16597
Cl        -4.36420        1.15220       -0.08202
Rh         1.20460        0.23946       -0.85481
Cl         2.98720        0.61762        0.69685
C          2.75882       -3.09441        0.98999
C          1.34069       -3.08456        0.42213
P          0.55292       -1.41552        0.60498
C          0.70072       -1.20166        2.41215
C         -1.21683       -2.11658        0.58071
O         -1.65875       -2.80071        1.44503
O         -1.65802       -1.74423       -0.55851
Cl        -3.31162       -2.20674       -1.10128
C          2.71149        0.26967       -2.51272
C          2.47411       -1.03172       -1.97831
H          2.36002        3.07451        1.20913
H          1.72148        4.04566        2.53468
H          1.30374        4.45744        0.87140
H          0.49190        1.90993        2.37749
H         -0.60862        3.25084        1.97373
H         -1.03403        2.92926       -1.91353
H         -1.23286        3.97546       -0.48384
H          0.35108        3.84631       -1.29736
H          1.78359        1.30488       -1.79157
H          0.08797       -0.05116       -1.83676
H          3.31896       -3.93664        0.58915
H          3.28779       -2.17633        0.74168
H          2.74050       -3.18395        2.07278
H          1.34828       -3.33307       -0.64246
H          0.71650       -3.81683        0.94405
H          1.71852       -0.87905        2.62719
H          0.47803       -2.15265        2.89538
H         -0.00565       -0.44898        2.75314
H          2.36435        0.48050       -3.52001
H          3.65562        0.74624       -2.26393
H          3.27110       -1.46960       -1.38631
H          1.94996       -1.74503       -2.60905
