40
2103.log
C          0.94651       -3.61181       -0.38459
O          0.21894       -2.38282       -0.30905
C         -1.09130       -2.45417       -0.22000
O         -1.75237       -3.46286       -0.20670
P         -1.90412       -0.76308       -0.21116
C         -2.90050       -0.94547        1.30673
N         -3.12833       -1.01101       -1.34035
Rh        -0.54871        1.01521       -0.55159
Cl        -1.26091        1.99887        1.51921
C          4.24512       -0.26835       -1.43301
O          3.07061        0.18645       -0.76601
C          2.58582       -0.56768        0.20744
O          3.06006       -1.60131        0.59294
P          1.09926        0.32973        0.86609
C          0.72150       -0.67482        2.34314
N          1.98945        1.52883        1.65515
C         -0.86345        2.95045       -1.60796
C          0.44674        2.80365       -1.03976
H          1.92095       -3.42166        0.05958
H          0.41189       -4.39376        0.15704
H          1.05303       -3.90282       -1.43085
H         -3.35682       -1.93568        1.32567
H         -2.28450       -0.78990        2.18918
H         -3.66876       -0.17336        1.27515
H         -2.81667       -0.88230       -2.29710
H         -3.58445       -1.91520       -1.23226
H         -1.67852        1.67505       -1.36529
H          0.01077        0.36029       -1.80083
H          4.63799        0.58046       -1.98729
H          3.99199       -1.08132       -2.11599
H          4.97477       -0.62687       -0.70457
H          0.19591       -1.58990        2.08626
H          1.66868       -0.90938        2.82775
H          0.10408       -0.06766        3.00391
H          1.32543        2.10861        2.17097
H          2.48385        2.12469        0.99592
H         -0.94687        2.96162       -2.69122
H         -1.53895        3.64596       -1.11651
H          0.66487        3.42712       -0.17545
H          1.28342        2.71001       -1.72805
