36
2107.log
C         -0.51401       -0.79678        2.61617
P         -1.41706       -0.38757        1.07193
C         -3.02039        0.11797        1.78635
C         -1.84089       -2.11387        0.53606
Br        -3.13074       -2.00430       -0.89998
Rh        -0.54206        1.07646       -0.43081
Cl        -0.53141        2.44478        1.53783
C          2.51489        1.07713        1.36926
P          1.67014        0.62615       -0.18412
C          2.83892        1.31148       -1.41336
C          2.04998       -1.17869       -0.35123
Br         3.91687       -1.65413       -0.06304
C         -1.55937        2.72950       -1.54947
C         -0.13746        2.74845       -1.66567
H         -0.29494        0.14161        3.12356
H         -1.13733       -1.42038        3.25772
H          0.41932       -1.31667        2.40307
H         -3.76625        0.22832        0.99834
H         -2.87044        1.08418        2.26775
H         -3.36226       -0.61183        2.52203
H         -2.29648       -2.69463        1.34020
H         -0.97041       -2.63682        0.13931
H         -1.99300        1.48030       -0.71797
H         -0.58900        0.14713       -1.62990
H          2.08157        0.53553        2.20837
H          3.58436        0.87763        1.30265
H          2.34340        2.14079        1.53386
H          2.52243        1.02573       -2.41602
H          3.85035        0.94939       -1.22611
H          2.82720        2.39790       -1.33651
H          1.79232       -1.49861       -1.36207
H          1.46790       -1.75679        0.36774
H         -2.14010        2.48522       -2.43399
H         -2.02113        3.48050       -0.91429
H          0.39016        3.53023       -1.12464
H          0.28827        2.52439       -2.63981
