50
2109.log
C          2.00751       -1.36795        2.03325
C          2.65911       -0.64401        0.86954
N          3.65158       -1.48206        0.24984
N          4.94231       -1.12437        0.10487
O          5.23812        0.01935        0.34090
O          5.68004       -1.99966       -0.28242
P          1.44524        0.00034       -0.42569
C          0.89524       -1.53247       -1.26186
C          2.68241        0.61331       -1.62381
Rh        -0.02432        1.57997        0.28709
Cl        -0.39904        1.45053       -2.07659
C         -3.52233        0.29520       -1.54047
C         -2.69255       -0.65853       -0.69812
N         -3.49291       -1.77972       -0.27899
N         -3.04189       -3.03996       -0.27108
O         -3.86063       -3.89426       -0.02452
O         -1.86187       -3.21198       -0.47731
P         -1.86762        0.20704        0.76576
C         -1.52505       -1.23040        1.85841
C         -3.36559        0.79246        1.67153
C         -0.48197        3.77726        0.90241
C         -1.56581        3.30491        0.21580
H          1.26742       -0.71211        2.48260
H          1.52035       -2.28156        1.69817
H          2.74987       -1.62484        2.78695
H          3.18057        0.25207        1.23053
H          3.47224       -2.47257        0.14555
H          0.40389       -1.22734       -2.18531
H          0.19774       -2.11589       -0.66516
H          1.76560       -2.13757       -1.51161
H          3.36943        1.29285       -1.12005
H          3.23416       -0.22146       -2.05568
H          2.16888        1.14894       -2.41927
H          1.22449        2.38878        0.06943
H          0.37657        1.50375        1.74215
H         -3.89644       -0.21460       -2.42637
H         -4.36793        0.69219       -0.98312
H         -2.88593        1.11508       -1.86736
H         -1.86991       -1.05048       -1.30690
H         -4.49418       -1.67590       -0.17818
H         -2.43372       -1.78411        2.09096
H         -0.79784       -1.89578        1.40258
H         -1.10994       -0.83914        2.78584
H         -3.03394        1.25416        2.60129
H         -4.01413       -0.05023        1.90809
H         -3.92717        1.52681        1.09921
H         -0.49600        3.83867        1.98405
H          0.24389        4.41460        0.41295
H         -1.69088        3.54128       -0.83501
H         -2.46792        3.04266        0.75008
