48
2115.log
C         -3.20473       -0.10685        1.78131
N         -3.03803       -0.76863        0.49504
C         -3.91170       -0.22353       -0.53143
O         -4.49162       -1.23883       -1.29402
P         -1.39104       -0.93613        0.02190
C         -1.61143       -2.03834       -1.42240
C         -0.89056       -2.15754        1.29679
Rh        -0.22230        1.01224       -0.25732
Cl         0.36581        0.93751        2.06948
C          2.29205       -2.47738       -1.02280
N          2.55624       -1.26764       -0.26892
C          2.68112       -1.52188        1.15475
O          3.95937       -2.00485        1.45698
P          1.88018        0.23382       -0.72554
C          2.34920        0.25502       -2.49845
C          3.23123        1.29333       -0.06705
C         -0.87735        3.14058        0.01742
C          0.49136        3.01124       -0.36507
H         -4.19367       -0.34019        2.18090
H         -3.10306        0.98307        1.70998
H         -2.44721       -0.46709        2.47352
H         -3.37213        0.41626       -1.24572
H         -4.69283        0.38227       -0.04598
H         -4.88140       -1.88285       -0.69101
H         -2.15097       -2.93557       -1.12435
H         -2.16764       -1.52261       -2.20078
H         -0.62842       -2.29867       -1.81037
H         -0.44932       -1.65119        2.15288
H         -0.14996       -2.83024        0.87007
H         -1.76966       -2.72550        1.59899
H         -1.53663        1.72212        0.08438
H         -0.58237        1.03834       -1.73044
H          1.33319       -2.93968       -0.76219
H          3.08656       -3.19055       -0.79528
H          2.30486       -2.26626       -2.08850
H          2.45137       -0.60588        1.71127
H          1.99743       -2.31056        1.48715
H          4.60532       -1.32561        1.23278
H          3.36415       -0.11564       -2.63085
H          1.64858       -0.32872       -3.09076
H          2.28505        1.28928       -2.83170
H          4.18549        0.79285       -0.22712
H          3.22240        2.24166       -0.60031
H          3.08067        1.48783        0.99289
H         -1.57263        3.56611       -0.70065
H         -1.08088        3.42747        1.04537
H          1.22715        3.23407        0.40120
H          0.76954        3.35707       -1.35757
