30
2123.log
C          3.26489       -0.91195        0.29662
P          1.73051       -0.07688       -0.22028
C          2.54556        1.08322       -1.31901
N          3.12048        1.75089       -2.04844
N          1.51520        1.11853        1.12981
O          0.41213        1.61801        1.24504
O          2.48201        1.38945        1.78639
Rh        -0.22673       -1.17683       -0.52410
Cl         0.42785       -1.40339        1.79592
C         -3.24087        0.63767       -0.86418
P         -1.57089        0.58624       -0.10579
C         -2.08899        1.12060        1.50976
N         -2.48144        1.36449        2.55529
N         -0.98745        2.16350       -0.80804
O          0.08782        2.11883       -1.35441
O         -1.71622        3.11103       -0.71388
C         -0.67527       -3.36166       -0.66697
C         -1.82594       -2.55196       -0.41222
H          3.03604       -1.69042        1.02308
H          3.71868       -1.35440       -0.59129
H          3.94876       -0.18077        0.73252
H          0.55124       -2.45601       -0.86800
H         -0.45540       -0.96479       -2.00761
H         -3.16533        0.41281       -1.92804
H         -3.68200        1.62564       -0.71757
H         -3.86751       -0.11485       -0.38622
H         -0.61313       -3.86076       -1.62912
H         -0.28748       -3.95200        0.15866
H         -2.24887       -2.59039        0.58947
H         -2.56978       -2.47553       -1.20064
