50
2125.log
C         -4.06066       -0.00090       -1.25982
C         -3.79678       -0.28597        0.20972
P         -2.06429        0.11119        0.74478
C         -2.12820        1.96838        0.69602
C         -1.37796        2.55064       -0.46470
O         -0.20094        2.80521       -0.44734
O         -2.17734        2.83146       -1.48942
O         -2.24008        0.08801        2.36686
C         -2.31462       -1.12069        3.09616
Rh        -0.41827       -1.13567       -0.23764
Cl        -0.70966        0.26141       -2.14346
C          2.62305        1.67273        2.42111
C          1.27578        1.21287        1.88069
P          1.41339        0.05352        0.44253
C          2.25726        1.09486       -0.83718
C          3.71982        0.79797       -0.88253
O          4.58254        1.40609       -0.30680
O          3.98613       -0.25151       -1.66824
O          2.72304       -0.82827        0.83927
C          2.66064       -1.87352        1.78733
C         -0.49743       -2.86738       -1.66078
C          0.82668       -2.38849       -1.38596
H         -5.06822       -0.31105       -1.53117
H         -3.95074        1.05890       -1.47479
H         -3.35176       -0.53754       -1.88639
H         -3.94976       -1.35104        0.41817
H         -4.47313        0.28829        0.85235
H         -3.17501        2.26999        0.65124
H         -1.67178        2.29678        1.63066
H         -1.65291        3.05717       -2.27450
H         -2.07600       -0.87939        4.13217
H         -1.59576       -1.85230        2.71519
H         -3.31943       -1.54568        3.04680
H         -1.49001       -2.08188       -0.82778
H         -0.28810       -2.04806        0.96729
H          3.16521        0.85261        2.88580
H          2.47657        2.45048        3.16860
H          3.24527        2.07246        1.62438
H          0.68700        0.70995        2.65498
H          0.70084        2.06547        1.52050
H          1.79778        0.85392       -1.79723
H          2.06482        2.13954       -0.59817
H          4.93484       -0.45278       -1.64964
H          3.57189       -2.46024        1.66752
H          2.61478       -1.48164        2.80614
H          1.78818       -2.51050        1.61619
H         -0.75990       -3.85902       -1.30144
H         -0.91032       -2.63824       -2.63943
H          1.33134       -1.84060       -2.17696
H          1.49204       -3.04556       -0.83280
