46
213.log
C          2.90441        2.11594        2.20050
C          1.68959        1.22995        1.96680
P          1.58270        0.54579        0.24539
O          1.91424        1.84289       -0.65282
C          3.24054       -0.29850        0.13989
O          3.27429       -1.30308       -0.83990
C          3.26434       -0.79987       -2.15513
Rh        -0.18872       -0.85060       -0.28244
Cl        -0.28017       -1.53190        2.04025
C         -4.14181       -0.77171        0.31376
C         -3.53052        0.49416       -0.29323
P         -1.76170        0.67502        0.23138
O         -1.92588        0.84164        1.80001
C         -1.43375        2.47996       -0.17210
O         -0.66678        2.72461       -1.32278
C         -1.34038        2.40646       -2.52093
C          0.09981       -3.04681       -0.87855
C         -1.28625       -2.51846       -0.81319
H          3.82192        1.53298        2.20296
H          2.97864        2.87343        1.42295
H          2.81850        2.61764        3.16251
H          1.67629        0.38406        2.65543
H          0.76932        1.79750        2.13637
H          1.10204        2.24498       -1.00564
H          3.42462       -0.80504        1.09174
H          4.01738        0.45906       -0.04223
H          3.35341       -1.66084       -2.81560
H          2.33222       -0.26496       -2.37046
H          4.10926       -0.12081       -2.31968
H          0.83122       -2.13587       -0.58275
H         -0.17665       -0.42686       -1.73307
H         -4.93778       -0.52340        1.01029
H         -4.54960       -1.42117       -0.45591
H         -3.38721       -1.33378        0.86245
H         -3.57782        0.47563       -1.38163
H         -4.05272        1.38706        0.06063
H         -1.46761        0.06088        2.22037
H         -0.85775        2.87901        0.66867
H         -2.39187        3.02016       -0.22304
H         -1.58209        1.33977       -2.55674
H         -0.66194        2.65759       -3.33377
H         -2.26068        2.99336       -2.61495
H          0.43621       -3.34981       -1.86894
H          0.33081       -3.80978       -0.13621
H         -1.89518       -2.95427       -0.02289
H         -1.82570       -2.50464       -1.75974
