48
2131.log
C          4.25223        1.38830        1.26309
C          3.34685        0.24260        1.68742
O          2.08980        0.25251        1.01563
P          1.76928       -0.23464       -0.47530
C          2.97194       -1.58733       -0.80244
N          2.54353        0.96931       -1.41356
C          1.87316        2.26015       -1.40148
Rh        -0.42403       -0.77074       -0.75728
Cl         0.05225       -2.32826        0.99120
C         -2.11752        3.88963       -1.15525
C         -2.42219        2.45449       -0.75642
O         -1.68112        2.14470        0.41512
P         -1.30953        0.62644        0.81785
C         -0.37994        1.09036        2.33497
N         -2.81967        0.13090        1.41383
C         -2.94471       -1.08083        2.20931
C         -1.34627       -2.42061       -1.95982
C         -2.29020       -1.65225       -1.20193
H          4.49343        1.30619        0.20726
H          5.16914        1.36187        1.84681
H          3.75587        2.34083        1.42987
H          3.84959       -0.71651        1.53797
H          3.09225        0.33392        2.74890
H          2.79179       -2.38167       -0.07992
H          2.80462       -1.98110       -1.80226
H          3.99241       -1.21570       -0.72432
H          2.65436        0.64300       -2.36801
H          0.92817        2.25366       -1.95498
H          2.53560        3.01451       -1.82854
H          1.65464        2.51908       -0.36583
H          0.02736       -1.81721       -1.79732
H         -0.61949        0.23053       -1.88231
H         -2.38296        4.56646       -0.34720
H         -2.68479        4.15544       -2.04288
H         -1.05624        3.99938       -1.36267
H         -3.49158        2.33165       -0.55119
H         -2.14355        1.76223       -1.56011
H          0.46225        1.72349        2.08008
H         -0.01780        0.17983        2.80557
H         -1.05576        1.62096        3.00502
H         -3.28638        0.91770        1.85927
H         -2.77102       -0.90475        3.27492
H         -3.94801       -1.49421        2.08263
H         -2.21019       -1.80769        1.86836
H         -1.39097       -2.35240       -3.04383
H         -1.12366       -3.42147       -1.59917
H         -2.74180       -2.14056       -0.34571
H         -2.98690       -1.02705       -1.75419
