44
2133.log
C          3.06333       -1.06757        2.03206
C          2.77600        0.38285        1.66615
P          1.80313        0.51915        0.10633
N          1.78253        2.16557       -0.07765
C          1.21402        2.77994       -1.26574
N          3.23851        0.03764       -0.96037
O          3.99069        0.95161       -1.22855
O          3.37420       -1.11419       -1.28631
Rh         0.05875       -0.82242       -0.39674
Cl        -0.44537       -1.14984        1.93583
C         -3.03208        0.32361       -2.55939
C         -2.62852        1.38698       -1.54946
P         -1.62883        0.69135       -0.15284
N         -1.36953        2.11591        0.65900
C         -0.70636        2.19124        1.95308
N         -3.11214        0.02787        0.71684
O         -3.62948       -0.98175        0.30643
O         -3.53566        0.73675        1.60265
C         -0.02949       -3.05095       -0.72279
C         -1.28396       -2.42561       -0.88495
H          3.61011       -1.57882        1.24106
H          2.12817       -1.59580        2.20868
H          3.65737       -1.11156        2.94217
H          2.18126        0.85657        2.45131
H          3.70377        0.95182        1.53519
H          2.60096        2.65826        0.26612
H          1.95673        2.90868       -2.05700
H          0.79387        3.75212       -1.00679
H          0.41687        2.13238       -1.63468
H          1.13702       -1.88881       -0.42492
H          0.27407       -0.56550       -1.87747
H         -3.62561       -0.45479       -2.08287
H         -3.62299        0.76614       -3.35861
H         -2.14554       -0.13287       -2.99557
H         -2.00083        2.14615       -2.02400
H         -3.51399        1.88411       -1.13826
H         -2.17062        2.74204        0.62701
H          0.01910        1.38317        2.02296
H         -1.41438        2.08447        2.77746
H         -0.19168        3.14919        2.03594
H          0.48279       -3.43816       -1.59749
H          0.15101       -3.61063        0.19009
H         -2.02533       -2.56648       -0.10534
H         -1.70053       -2.36409       -1.88553
