50
2143.log
C         -4.34266        0.39252        0.31865
C         -3.95514       -1.01198       -0.14770
C         -3.72237       -1.02610       -1.65098
N         -2.79193       -1.55065        0.54036
P         -1.16296       -1.16111        0.28091
C         -0.72091       -2.42874       -0.97869
N         -0.60804       -1.94831        1.65914
Rh        -0.34054        0.98669        0.02562
Cl         0.77568        0.80000        2.15612
C          4.12846       -0.60647        0.91317
C          2.84846       -1.34896        0.53756
C          3.06692       -2.86027        0.60101
N          2.37439       -1.00471       -0.79468
P          1.50199        0.37498       -1.18626
C          2.75816        1.70001       -1.47576
N          1.30331       -0.04119       -2.81933
C         -1.04939        2.96732        0.77186
C          0.16737        3.04005        0.02311
H         -3.60165        1.11058       -0.02391
H         -4.40090        0.43383        1.40469
H         -5.31094        0.67015       -0.09090
H         -4.78477       -1.69558        0.09031
H         -2.85734       -0.40678       -1.88250
H         -4.59107       -0.62747       -2.16910
H         -3.54394       -2.04088       -1.99593
H         -2.93386       -1.55714        1.54638
H          0.36147       -2.45228       -1.09396
H         -1.17716       -2.19950       -1.93673
H         -1.09259       -3.38595       -0.61682
H          0.23999       -2.46963        1.46441
H         -0.36437       -1.25005        2.36632
H         -1.53020        1.49863        0.84001
H         -1.08849        1.16525       -1.28259
H          4.49382       -0.95637        1.87511
H          3.92786        0.45844        0.99443
H          4.90273       -0.76786        0.16363
H          2.06509       -1.05280        1.24026
H          3.88739       -3.14934       -0.05400
H          3.31250       -3.16161        1.61586
H          2.17453       -3.39626        0.28444
H          3.08754       -1.16530       -1.50394
H          3.12969        2.07723       -0.52635
H          3.57793        1.27806       -2.05663
H          2.30706        2.52249       -2.02560
H          0.90416        0.74049       -3.32859
H          0.66588       -0.82603       -2.90844
H         -1.94446        3.39688        0.32933
H         -0.98415        3.12186        1.84535
H          1.07455        3.25249        0.58122
H          0.12843        3.53502       -0.94437
