44
2147.log
C          0.97501        0.62820        2.72689
P          1.15231        0.75336        0.90934
C          1.11614        2.59338        0.73209
C          3.03616        0.62562        0.93737
O          3.66069        0.55171        1.96013
C          3.78151        0.51873       -0.40244
N          3.24810        1.41917       -1.41000
O          4.02737        2.11150       -2.01945
O          2.04612        1.42200       -1.56485
Rh         0.52590       -1.26308       -0.16047
Cl        -1.31326       -1.52001        1.46436
C         -2.63846       -1.31558       -1.80176
P         -1.28218       -0.30404       -1.11587
C         -1.21125        1.11228       -2.25807
C         -1.92715        0.43057        0.47665
O         -1.22639        1.27911        1.01831
C         -3.41635        0.34297        0.84260
N         -4.09546        1.44470        0.15523
O         -4.58566        2.31941        0.81938
O         -4.09425        1.40158       -1.05727
C          1.24125       -3.32593        0.16769
C          0.20147       -3.21820       -0.82288
H         -0.06560        0.78754        2.99611
H          1.28617       -0.36208        3.05816
H          1.60160        1.38155        3.20260
H          2.09147        3.00014        1.00025
H          0.85876        2.89307       -0.27868
H          0.35631        2.95920        1.41647
H          4.85127        0.70144       -0.27383
H          3.60344       -0.50727       -0.74660
H          1.63094       -1.93370        0.68592
H          1.43835       -1.07332       -1.33232
H         -3.50081       -0.68484       -2.01411
H         -2.27580       -1.75386       -2.73114
H         -2.90050       -2.12149       -1.11781
H         -2.19948        1.54862       -2.39430
H         -0.82429        0.75214       -3.21047
H         -0.51211        1.84357       -1.85912
H         -3.83485       -0.60445        0.50428
H         -3.53598        0.47220        1.92019
H          2.22805       -3.62598       -0.17330
H          0.97216       -3.77485        1.12044
H         -0.77481       -3.60955       -0.54958
H          0.47189       -3.43109       -1.85339
