48
2154.log
C          0.91237        3.93972        1.00038
C          0.79706        2.60743        0.25645
C          0.57777        2.86413       -1.21638
O         -0.38276        3.42195       -1.66463
O          1.97076        1.86477        0.51307
P          2.22256        0.34065       -0.01035
C          3.29768       -0.17753        1.37171
C          3.53085        0.61688       -1.28079
Rh         0.46633       -0.96768       -0.65150
Cl         1.21515       -2.61885        0.89575
C         -3.24025        2.32378       -0.29317
C         -2.82131        0.85845       -0.15121
C         -4.07124        0.02266        0.00052
O         -4.67936       -0.47889       -0.90006
O         -1.99933        0.72474        0.99662
P         -0.92121       -0.50475        1.08822
C         -0.20036        0.00124        2.68913
C         -1.98445       -1.88931        1.66655
C          0.30986       -2.52604       -2.25150
C         -0.88556       -2.36762       -1.48244
H          0.03467        4.54614        0.79695
H          1.80168        4.47030        0.66866
H          0.99018        3.76087        2.06917
H         -0.08499        2.06406        0.62549
H          1.40575        2.51012       -1.85709
H          2.70692       -0.35751        2.26563
H          4.03052        0.60643        1.55664
H          3.78885       -1.10706        1.09471
H          4.06862       -0.31762       -1.42874
H          4.21805        1.38557       -0.92997
H          3.09306        0.91811       -2.23044
H          1.37100       -1.50109       -1.77558
H         -0.05243        0.12218       -1.57781
H         -3.98610        2.41598       -1.07780
H         -3.65668        2.67907        0.64629
H         -2.37687        2.92868       -0.55814
H         -2.27522        0.54118       -1.05202
H         -4.40441       -0.06414        1.05334
H          0.31176       -0.86292        3.10646
H          0.51079        0.81433        2.55936
H         -1.00591        0.31770        3.34976
H         -1.35178       -2.74643        1.88101
H         -2.51265       -1.57842        2.56741
H         -2.70390       -2.15768        0.89361
H          0.28914       -2.21693       -3.29257
H          0.89846       -3.42184       -2.07362
H         -1.12314       -3.16974       -0.78970
H         -1.75715       -1.95497       -1.98492
