48
2156.log
C          3.38606       -2.17415       -0.42424
P          2.20853       -0.79512       -0.71156
C          2.58095       -0.43569       -2.47378
C          3.15566        0.54559        0.14396
N          2.27963        1.68334        0.30193
C          2.89990        2.84276        0.90586
O          2.00766        3.91712        0.90845
Rh         0.06032       -1.21473       -0.03336
Cl         0.72322       -0.43719        2.13789
C         -1.20300        2.02735        0.81408
P         -0.91797        0.80681       -0.51820
C         -0.14360        1.86909       -1.79939
C         -2.63004        0.73636       -1.23888
N         -3.61003        0.67503       -0.17825
C         -4.96487        0.48533       -0.64863
O         -5.85147        0.42931        0.42363
C         -0.77801       -3.01825        0.97833
C         -1.73432       -1.97112        0.81184
H          4.39996       -1.86840       -0.68346
H          3.09332       -3.03017       -1.03092
H          3.34833       -2.45508        0.62782
H          3.65586       -0.47582       -2.64513
H          2.08315       -1.18130       -3.09048
H          2.20432        0.54782       -2.73935
H          4.01737        0.82446       -0.47607
H          3.52356        0.15105        1.10600
H          1.51890        1.36789        0.91218
H          3.18752        2.69102        1.95808
H          3.80782        3.08503        0.32480
H          1.68885        4.04658        0.00706
H          0.59746       -2.60034        0.32550
H         -0.32946       -1.72386       -1.41071
H         -1.95399        2.74417        0.48606
H         -0.27406        2.53965        1.05503
H         -1.55367        1.51134        1.70535
H         -0.68151        2.81346       -1.87434
H         -0.17562        1.35029       -2.75604
H          0.89096        2.04687       -1.51043
H         -2.81134        1.65318       -1.81377
H         -2.68639       -0.11842       -1.93596
H         -3.37470       -0.07634        0.46493
H         -5.10917       -0.45601       -1.20771
H         -5.20179        1.32700       -1.32301
H         -5.69481        1.19928        0.98323
H         -0.91231       -3.92694        0.39842
H         -0.39705       -3.19271        1.98077
H         -2.02993       -1.43925        1.71312
H         -2.54806       -2.15809        0.11526
