40
216.log
C          2.86945        1.25175       -2.13251
C          2.09080       -0.02573       -1.91513
N          0.72948        0.02051       -2.41338
O          0.43513        0.53272       -3.45378
O         -0.00773       -0.74180       -1.76788
P          1.69484       -0.62595       -0.18720
C          1.78574       -2.45344       -0.35683
Br         3.76955       -0.42701        0.59769
Rh         0.25765        0.65956        1.05746
Cl         0.00015        2.05312       -0.88329
C         -4.11872       -0.67413       -1.04515
C         -2.74884       -0.01761       -0.93263
N         -2.96644        1.41583       -0.82726
O         -2.87563        1.84023        0.31322
O         -3.28885        2.05365       -1.78614
P         -1.75348       -0.37282        0.61996
C         -2.99500       -0.52679        1.96628
Br        -1.58705       -2.54261        0.26648
C          0.64168        2.48540        2.34270
C         -0.70883        2.07241        2.35149
H          2.67081        1.61662       -3.13976
H          3.93714        1.07752       -2.02151
H          2.56086        2.02138       -1.42655
H          2.56989       -0.85592       -2.45705
H          1.72208       -2.88356        0.64395
H          0.96163       -2.84043       -0.95003
H          2.74236       -2.73401       -0.80084
H          1.50415        1.44380        1.43243
H          0.45802       -0.26315        2.24928
H         -4.57339       -0.38311       -1.99154
H         -4.02498       -1.75895       -1.03173
H         -4.77912       -0.35975       -0.23762
H         -2.15689       -0.24313       -1.82692
H         -3.36681        0.45415        2.25007
H         -3.81864       -1.18186        1.68372
H         -2.47544       -0.96953        2.81782
H          1.24217        2.33318        3.23370
H          0.90558        3.36994        1.77130
H         -1.43003        2.67314        1.80883
H         -1.09660        1.61483        3.25702
