36
2161.log
C         -2.84940       -1.96254        0.11635
P         -1.67020       -0.57492        0.31051
C         -2.23650        0.10966        1.92420
O         -2.29633        1.28313        2.16370
C         -2.36481        0.69169       -0.84491
C         -3.77229        0.81851       -0.61033
N         -4.89514        0.87954       -0.40254
Rh         0.55273       -1.10203        0.24045
Cl         0.25467       -0.86114       -2.11573
C          0.72420        2.25278        1.53963
P          1.41578        0.99707        0.39640
C          3.13020        1.00034        1.07735
O          4.09832        1.37601        0.48083
C          1.72524        1.97134       -1.14967
C          0.53481        2.69440       -1.47332
N         -0.44169        3.25204       -1.68364
C          1.59403       -3.04293       -0.16982
C          2.48357       -1.92838       -0.07065
H         -2.68053       -2.42084       -0.85924
H         -3.87893       -1.60914        0.18245
H         -2.65517       -2.70270        0.89347
H         -2.44085       -0.65630        2.69968
H         -1.86620        1.65496       -0.69039
H         -2.16422        0.35662       -1.86859
H          0.15462       -2.57884        0.11669
H          0.67228       -1.26588        1.75200
H          1.29725        3.17887        1.48354
H         -0.31822        2.45159        1.29057
H          0.76189        1.85238        2.55277
H          3.18974        0.60737        2.11279
H          2.57237        2.64642       -0.98680
H          1.95210        1.26804       -1.95873
H          1.64306       -3.79806        0.60927
H          1.41502       -3.44711       -1.16251
H          2.93178       -1.56589       -0.99239
H          3.15563       -1.89636        0.78263
