46
2163.log
C         -2.03730        2.06041        1.24419
N         -2.53978        0.83350        0.65811
C         -3.07132        1.00951       -0.63345
Br        -5.04375        1.35117       -0.52355
P         -1.83724       -0.69493        0.96207
C         -3.35330       -1.72312        0.83783
C         -1.71429       -0.66280        2.79097
Rh        -0.09634       -1.41018       -0.32711
Cl        -0.05388        0.69661       -1.48993
C          4.08848       -1.50291       -0.04142
N          3.15019       -0.40664        0.07898
C          3.31963        0.61843       -0.85602
Br         4.68612        1.96454       -0.20181
P          1.64254       -0.56625        0.87548
C          1.50918        1.14499        1.52048
C          2.17494       -1.41729        2.41035
C         -0.10928       -2.46465       -2.31109
C          1.20023       -2.23099       -1.79022
H         -1.66451        1.86973        2.24650
H         -1.24184        2.50459        0.63824
H         -2.86432        2.77150        1.31343
H         -2.66981        1.87442       -1.16101
H         -2.98170        0.11896       -1.25374
H         -3.69868       -1.80721       -0.19120
H         -3.10563       -2.72173        1.19487
H         -4.14458       -1.29164        1.45033
H         -2.63453       -0.25995        3.21219
H         -0.85863       -0.09009        3.13938
H         -1.58466       -1.69651        3.10874
H         -1.16789       -1.95741       -1.28823
H         -0.08895       -2.71681        0.44198
H          5.08366       -1.15834        0.25613
H          3.79075       -2.32047        0.60847
H          4.14631       -1.87654       -1.06878
H          3.74472        0.28256       -1.80328
H          2.41577        1.19995       -1.02261
H          0.79905        1.15961        2.34432
H          1.14855        1.81734        0.74517
H          2.48622        1.47247        1.87453
H          1.38734       -1.28846        3.15034
H          2.29752       -2.48432        2.24155
H          3.10248       -0.98220        2.77870
H         -0.46296       -3.49040       -2.35776
H         -0.42709       -1.85559       -3.15323
H          1.79423       -1.47029       -2.28997
H          1.77333       -3.09730       -1.47107
