36
2166.log
C          1.50900        1.96286        1.49867
P          1.60549        0.61523        0.25675
C          3.36459        0.08710        0.53901
C          3.58204       -1.22273        0.00260
N          3.71006       -2.27258       -0.43207
N          1.91854        1.84663       -1.09954
O          3.02434        2.26520       -1.34400
O          0.88482        2.19070       -1.63064
Rh         0.02644       -0.89967       -0.37850
Cl         0.81684       -1.08034        1.92674
C         -2.24260        0.72809        1.87377
P         -1.80706        0.31780        0.14762
C         -2.16336        1.89626       -0.76353
C         -1.59209        2.97768       -0.02182
N         -1.13264        3.80490        0.62076
N         -3.34989       -0.53438       -0.25218
O         -3.94387       -0.21560       -1.25380
O         -3.65567       -1.41764        0.51413
C          0.28860       -3.09327       -0.81302
C         -1.05736       -2.72695       -0.54308
H          2.44387        2.52632        1.46197
H          0.68035        2.63595        1.27716
H          1.37793        1.52869        2.48830
H          3.55304        0.07413        1.61644
H          4.02045        0.81210        0.04116
H          1.16900       -1.79260       -0.85463
H         -0.19352       -0.57389       -1.83387
H         -2.33519       -0.20509        2.43136
H         -1.43569        1.31642        2.30837
H         -3.17634        1.28983        1.92366
H         -1.68799        1.84926       -1.74808
H         -3.24304        2.03754       -0.87740
H          0.54364       -3.40696       -1.81984
H          0.84758       -3.61080       -0.03821
H         -1.48114       -3.00298        0.42045
H         -1.76764       -2.77020       -1.36444
