26
2175.log
C          2.37219       -0.45223        1.71988
P          1.70239       -0.65241        0.03594
O          2.66599       -1.86967       -0.39716
Cl         2.58094        0.86787       -0.91872
Rh        -0.52460       -0.85718       -0.36970
Cl        -0.94576       -0.59208        1.96247
C         -2.50137        2.00010        0.24943
P         -0.87566        1.37337       -0.33485
O         -0.67386        2.15237       -1.72156
Cl         0.30586        2.41512        0.88439
C         -1.91915       -2.60219       -0.41352
C         -2.54960       -1.33906       -0.66626
H          2.01396        0.47547        2.15774
H          2.01577       -1.28502        2.32220
H          3.45938       -0.46123        1.66173
H          2.42955       -2.25227       -1.24660
H         -0.43548       -2.39051       -0.25143
H         -0.26953       -0.93823       -1.86639
H         -3.26797        1.69658       -0.46042
H         -2.47504        3.08693        0.33229
H         -2.71078        1.56401        1.22235
H         -0.79828        3.10776       -1.69085
H         -1.86907       -3.31453       -1.23202
H         -2.11020       -3.06304        0.55168
H         -3.18971       -0.95176        0.12155
H         -2.93342       -1.16253       -1.66772
