42
2177.log
C          2.77699       -0.03530        1.78877
P          1.95940        0.53841        0.25830
C          3.46259        0.67462       -0.81128
N          1.65025        2.14113        0.74529
C          0.76111        2.95484       -0.04984
O          1.23941        3.24953       -1.32792
Rh         0.25703       -0.69735       -0.63999
Cl         0.69123       -2.37425        0.99619
C         -0.83760        0.40292        2.50018
P         -1.38482       -0.10978        0.83563
C         -2.55404       -1.44730        1.28905
N         -2.52142        1.13499        0.57315
C         -3.12565        1.21085       -0.74215
O         -4.31210        1.93937       -0.69576
C          0.28983       -2.28586       -2.21116
C         -1.00816       -2.04990       -1.65734
H          3.14362       -1.04623        1.62382
H          2.06030       -0.06082        2.60500
H          3.60402        0.62864        2.04025
H          3.19994        1.06294       -1.79412
H          4.19487        1.33583       -0.34621
H          3.89697       -0.31661       -0.93063
H          2.51962        2.63410        0.93634
H          0.61857        3.91606        0.45503
H         -0.19707        2.42044       -0.10550
H          1.15009        2.45394       -1.87074
H          1.31091       -1.29178       -1.58914
H         -0.07796        0.38242       -1.66172
H         -0.13190        1.22969        2.42443
H         -1.70642        0.69610        3.08826
H         -0.34646       -0.45193        2.96100
H         -1.97812       -2.31297        1.60842
H         -3.18775       -1.09325        2.10089
H         -3.17120       -1.72296        0.43619
H         -2.16874        2.04325        0.85977
H         -2.49407        1.72061       -1.48194
H         -3.29841        0.17846       -1.08285
H         -4.88232        1.55389       -0.01956
H          0.45836       -2.00881       -3.24808
H          0.79456       -3.20199       -1.91751
H         -1.40154       -2.82155       -1.00232
H         -1.75638       -1.60720       -2.31052
