48
2180.log
C          3.28459       -0.69173        1.99317
C          2.50786        0.60607        1.83884
P          1.73632        0.73870        0.17409
N          1.32491        2.38154        0.25718
C          0.84020        2.97809       -0.98004
O          3.11494        0.87704       -0.66126
C          3.36301        0.39832       -1.96471
Rh         0.20709       -0.82014       -0.54464
Cl        -0.00485       -1.71546        1.66917
C         -4.34156        0.20216        0.87548
C         -3.09561       -0.63069        0.60916
P         -1.64846        0.38730        0.00276
N         -2.28349        1.46513       -1.11848
C         -2.59325        1.02141       -2.46155
O         -1.55398        1.52462        1.15719
C         -1.31382        1.22062        2.52570
C          0.48185       -2.91010       -1.29011
C         -0.88624       -2.48580       -1.25785
H          2.60576       -1.54046        1.94365
H          3.79473       -0.71883        2.95413
H          4.02681       -0.78614        1.20265
H          1.72828        0.67180        2.59831
H          3.16523        1.47576        1.91871
H          0.63999        2.52308        0.99229
H         -0.11871        2.56105       -1.30312
H          1.58288        2.80146       -1.75669
H          0.73457        4.05320       -0.83375
H          4.24357       -0.24835       -1.93727
H          2.50950       -0.16716       -2.35305
H          3.56312        1.24376       -2.62713
H          1.39288       -1.76438       -0.81489
H          0.27330       -0.24951       -1.94650
H         -4.11314        1.06654        1.49669
H         -5.08967       -0.39763        1.39129
H         -4.78206        0.55653       -0.05549
H         -3.30159       -1.39142       -0.14533
H         -2.76234       -1.14249        1.51407
H         -3.01163        2.04307       -0.71224
H         -2.63791        1.88643       -3.12550
H         -3.53906        0.47414       -2.53462
H         -1.78725        0.36642       -2.79219
H         -2.26147        1.11161        3.05761
H         -0.73679        0.30070        2.63969
H         -0.76234        2.05946        2.95458
H          0.94239       -3.06710       -2.26184
H          0.79096       -3.63796       -0.54495
H         -1.51178       -2.93861       -0.49431
H         -1.39255       -2.35586       -2.21159
