30
219.log
C         -0.91249       -2.57807        1.01588
P         -1.49101       -1.18244       -0.01509
F         -1.79588       -2.06230       -1.34795
C         -3.24186       -1.08723        0.56242
Br        -4.25441        0.05677       -0.61564
Rh        -0.33428        0.75709       -0.18129
Cl        -0.85162        0.53288        2.16110
C          2.42472       -0.25521        1.83632
P          1.70550       -0.14090        0.16741
F          1.90330       -1.69266       -0.26952
C          3.08492        0.54300       -0.85119
Br         4.80328       -0.27070       -0.47472
C         -0.99533        2.88653       -0.16398
C          0.41198        2.72731        0.01127
H          0.04585       -2.92877        0.63955
H         -0.80403       -2.25331        2.04672
H         -1.63916       -3.38723        0.94727
H         -3.70141       -2.07623        0.53101
H         -3.28995       -0.66173        1.56307
H         -1.65053        1.48499       -0.43745
H         -0.10909        0.75765       -1.67864
H          1.65721       -0.61245        2.52131
H          3.27458       -0.93636        1.83530
H          2.73244        0.73851        2.15727
H          3.18326        1.61276       -0.67193
H          2.86200        0.36403       -1.90374
H         -1.34776        3.34186       -1.08398
H         -1.58573        3.15009        0.70930
H          0.81069        2.91372        1.00622
H          1.05531        3.07876       -0.79132
