44
2190.log
C         -1.81461       -1.07109        2.12981
P         -1.41366       -1.05122        0.34874
C         -0.82247       -2.76045        0.05382
C         -3.14006       -1.30320       -0.36789
N         -2.96363       -1.60492       -1.77046
C         -3.95596       -0.08907       -0.04805
O         -4.51113        0.11110        0.99677
Rh        -0.25613        0.73479       -0.50650
Cl        -0.25378        1.77629        1.63562
C          3.01368        1.49252        0.52715
P          1.82712        0.13739        0.23466
C          1.94080       -0.73766        1.84008
C          2.87464       -0.96678       -0.89792
N          2.03371       -2.06084       -1.32956
C          4.02907       -1.46314       -0.11016
O          5.02834       -0.83783        0.13901
C         -0.94964        2.67273       -1.40053
C          0.47188        2.54281       -1.34024
H         -2.43686       -1.93331        2.36770
H         -0.89003       -1.10515        2.70228
H         -2.34051       -0.15222        2.38664
H         -1.32103       -3.45215        0.73107
H          0.25672       -2.81091        0.18087
H         -1.06260       -3.01698       -0.97632
H         -3.56604       -2.17506        0.14519
H         -3.85550       -1.67757       -2.24878
H         -2.41805       -0.87096       -2.21802
H         -4.00976        0.64961       -0.87821
H         -1.60473        1.37267       -0.86243
H         -0.17444        0.07408       -1.87550
H          3.17524        2.05462       -0.39143
H          3.96356        1.08548        0.87414
H          2.58853        2.14873        1.28547
H          1.51091       -1.73476        1.76501
H          2.98015       -0.80061        2.15873
H          1.37588       -0.14761        2.56122
H          3.22669       -0.29525       -1.70217
H          1.18676       -1.68741       -1.75353
H          2.50489       -2.63395       -2.02218
H          3.88559       -2.49443        0.26597
H         -1.42202        2.66475       -2.37926
H         -1.41698        3.35553       -0.69653
H          0.98147        3.15844       -0.60588
H          1.00828        2.44358       -2.28083
