46
2195.log
C          1.18237       -2.71569        0.77279
P          0.63464       -0.97738        0.57823
C          0.66579       -0.41838        2.31532
O          2.02189       -0.22465        0.14247
C          2.57078       -0.41586       -1.15007
C          4.09823       -0.47312       -1.03264
C          4.49262       -1.54215       -0.15246
N          4.77111       -2.39338        0.55738
Rh        -1.19398       -0.66301       -0.70631
Cl        -2.01788       -1.90981        1.15187
C         -2.81101        2.59123       -0.49149
P         -1.75838        1.32893        0.35868
C         -2.56929        1.27994        2.00108
O         -0.51923        2.30236        0.81964
C          0.47548        2.68097       -0.11010
C          1.79619        2.88389        0.64230
C          2.89676        2.99283       -0.27483
N          3.77217        3.04296       -1.00851
C         -2.78732       -1.58441       -2.00864
C         -3.26715       -0.38590       -1.53137
H          0.39002       -3.27428        1.26313
H          2.09273       -2.73366        1.37169
H          1.37648       -3.16559       -0.19971
H         -0.04843       -1.01826        2.87351
H          1.67405       -0.57545        2.69600
H          0.39236        0.63014        2.39337
H          2.29359        0.42779       -1.79304
H          2.18474       -1.33623       -1.60065
H          4.53744       -0.63382       -2.01949
H          4.46909        0.47394       -0.63097
H         -0.66261       -1.90491       -1.37851
H         -0.55814        0.08571       -1.86460
H         -3.84013        2.24941       -0.55338
H         -2.43578        2.77525       -1.49729
H         -2.76630        3.51334        0.08731
H         -2.92580        0.26909        2.19049
H         -3.40329        1.97660        2.03530
H         -1.83828        1.54540        2.76075
H          0.17988        3.61041       -0.61214
H          0.59351        1.89692       -0.86980
H          1.74671        3.77530        1.27234
H          1.97877        2.00957        1.27347
H         -2.45529       -1.66649       -3.03737
H         -3.08449       -2.51442       -1.53616
H         -3.96190       -0.38308       -0.69689
H         -3.32451        0.46745       -2.19716
