50
22.log
C          4.52061        1.14701       -0.13395
N          3.38775        0.27407       -0.39650
C          3.69608       -1.12976       -0.09021
N          3.69610       -1.52496        1.28475
P          1.81712        0.88453       -0.22040
C          1.91629        2.34431       -1.34573
C          1.83062        1.73510        1.42364
Rh         0.05785       -0.53611       -0.60622
Cl         0.43168       -1.41944        1.59409
C         -3.56013        0.61671       -1.56543
N         -3.23653        0.48464       -0.14983
C         -3.95177       -0.58979        0.53479
N         -5.27624       -0.20073        0.94898
P         -1.60370        0.80025        0.23858
C         -1.75111        0.98302        2.05543
C         -1.61721        2.58324       -0.22790
C         -0.04112       -2.64319       -1.34833
C         -1.30932       -2.11971       -0.96174
H          4.86877        1.09401        0.90426
H          5.34836        0.84616       -0.78109
H          4.26974        2.17865       -0.36340
H          4.68914       -1.32681       -0.51445
H          2.97033       -1.75675       -0.61423
H          4.26446       -0.91021        1.85549
H          2.74574       -1.53073        1.65204
H          2.42278        3.19515       -0.89353
H          0.90640        2.63931       -1.61667
H          2.43797        2.03579       -2.24921
H          2.78502        2.23592        1.58089
H          1.67297        0.98725        2.19974
H          1.02998        2.46988        1.46785
H          1.06146       -1.50381       -1.22450
H         -0.17507        0.03508       -1.99365
H         -4.17785       -0.21879       -1.90041
H         -4.11157        1.54398       -1.74374
H         -2.65102        0.62960       -2.17271
H         -3.39129       -0.88005        1.42525
H         -4.06031       -1.47177       -0.10961
H         -5.23243        0.59226        1.57929
H         -5.83447        0.07191        0.14729
H         -1.65083        0.01764        2.54658
H         -0.93702        1.61496        2.40353
H         -2.70829        1.44181        2.29825
H         -0.72902        3.07389        0.16289
H         -2.50832        3.04961        0.18941
H         -1.62488        2.68889       -1.31016
H          0.13080       -2.84073       -2.40258
H          0.42917       -3.36381       -0.68468
H         -1.73882       -2.49898       -0.03846
H         -2.04036       -1.94858       -1.74704
