40
2207.log
C          4.43000       -0.17928        0.79323
C          3.19692       -0.97764        0.38397
P          1.84864        0.05835       -0.34954
C          2.73318        0.70342       -1.83295
O          3.46978        0.01585       -2.48198
C          1.94552        1.59727        0.73301
O          2.32663        2.63541        0.26799
O          1.58577        1.42692        1.97738
Rh        -0.21592       -1.04812       -0.41333
Cl         0.01835       -1.10076        2.03194
C         -0.70462        2.69064       -1.61427
C         -1.24401        2.41640       -0.21704
P         -1.64623        0.64068       -0.00643
C         -2.18512        0.57315        1.77507
O         -2.00582        1.48795        2.52234
C         -3.33847        0.57216       -0.76178
O         -3.80760        1.40824       -1.47683
O         -3.95556       -0.53598       -0.37226
C         -0.30695       -3.36167       -0.47860
C         -1.57680       -2.60716       -0.37020
H          5.19499       -0.85795        1.16556
H          4.19812        0.53478        1.58096
H          4.84033        0.36531       -0.05485
H          2.78017       -1.51683        1.24095
H          3.45702       -1.70655       -0.39317
H          2.51220        1.75416       -2.09525
H          1.13929        0.54400        2.14961
H          0.56542       -2.53062       -0.56424
H         -0.38914       -0.93021       -1.90842
H         -1.48417        2.53364       -2.35634
H         -0.34738        3.71452       -1.68687
H          0.12446        2.01602       -1.83635
H         -2.15873        2.98745       -0.02915
H         -0.51066        2.68153        0.55072
H         -2.71276       -0.35436        2.05856
H         -4.84525       -0.61327       -0.76132
H         -0.19806       -3.95325       -1.38576
H         -0.04304       -3.93914        0.40676
H         -2.10435       -2.71034        0.57656
H         -2.25384       -2.69664       -1.21698
