46
2209.log
C         -0.35206        0.27763        2.70835
P          0.94671        0.63455        1.47125
C          2.41526        0.67083        2.57199
C          0.66210        2.47350        1.25780
N          1.42799        3.02204        0.17388
C          0.87843        3.24662       -1.03791
O         -0.30041        3.23617       -1.29501
O          1.82931        3.56273       -1.94687
Rh         1.24708       -0.71392       -0.35809
Cl         1.24062       -2.40740        1.33274
C         -1.91573       -2.16234        0.24870
P         -0.95288       -1.03266       -0.81632
C         -1.42837       -1.66024       -2.47525
C         -1.96637        0.52817       -0.75796
N         -3.38721        0.31305       -0.74881
C         -4.08892        0.33662        0.39797
O         -3.62635        0.50837        1.50012
O         -5.40839        0.13320        0.17084
C          3.10166       -1.64553       -1.17873
C          1.89197       -2.10914       -1.79614
H         -0.20531       -0.74516        3.05284
H         -1.35061        0.37495        2.28350
H         -0.24754        0.96620        3.54697
H          2.63945       -0.35869        2.84964
H          2.21128        1.25608        3.46873
H          3.27338        1.08771        2.04438
H          0.91609        2.99272        2.18906
H         -0.39134        2.65002        1.02709
H          2.43180        2.92242        0.19815
H          1.40523        3.75236       -2.79502
H          2.76719       -0.56941       -0.16165
H          1.27599        0.40709       -1.38074
H         -2.91975       -2.30714       -0.14837
H         -1.96657       -1.75799        1.25707
H         -1.38754       -3.11410        0.28944
H         -2.51305       -1.69898       -2.57162
H         -1.02049       -2.66111       -2.60739
H         -1.01057       -1.00578       -3.23796
H         -1.70596        1.05010        0.16578
H         -1.67088        1.16942       -1.59206
H         -3.89076        0.19307       -1.61216
H         -5.88335        0.16709        1.01268
H          3.78290       -1.05619       -1.78675
H          3.60717       -2.33388       -0.50650
H          1.58063       -3.12285       -1.55605
H          1.72947       -1.84014       -2.83665
