50
2216.log
C         -3.98488        2.83487        0.31900
C         -3.41126        1.45285        0.60911
C         -2.79081        0.84078       -0.63862
P         -1.85545       -0.71152       -0.31711
C         -3.15690       -1.78824        0.43019
O         -1.90019       -1.17638       -1.86791
C         -1.41780       -2.43359       -2.33077
Rh         0.09140       -0.53284        0.89594
Cl         1.28819       -2.12476       -0.43473
C          5.14763        0.70146       -0.51977
C          3.70292        0.37676       -0.88046
C          2.75446        1.46294       -0.38601
P          0.95522        1.03082       -0.52169
C          0.79577        0.71937       -2.30994
O          0.29552        2.52282       -0.56713
C          0.14916        3.29210        0.60919
C          0.87184       -1.60095        2.68996
C          1.71570       -0.53208        2.23949
H         -4.76056        2.77372       -0.44159
H         -3.20542        3.50205       -0.04160
H         -4.41890        3.26597        1.21819
H         -2.64808        1.52990        1.38655
H         -4.20612        0.80595        0.98484
H         -2.08555        1.54876       -1.08195
H         -3.55580        0.60629       -1.38331
H         -2.78978       -2.81428        0.45246
H         -4.06745       -1.73934       -0.16616
H         -3.35278       -1.46944        1.45025
H         -2.12860       -3.22779       -2.09328
H         -1.32414       -2.34516       -3.41308
H         -0.44482       -2.67171       -1.89770
H         -0.39050       -1.66868        1.81496
H         -0.60720        0.48402        1.77413
H          5.26997        0.76518        0.55991
H          5.81445       -0.07160       -0.89395
H          5.44758        1.65373       -0.95424
H          3.61497        0.28066       -1.96388
H          3.42344       -0.58403       -0.44749
H          2.95941        1.68104        0.66733
H          2.89502        2.38677       -0.95888
H          1.24992       -0.24248       -2.53370
H          1.29159        1.51719       -2.85997
H         -0.25879        0.68394       -2.57520
H         -0.60392        4.05316        0.40244
H          1.08962        3.77985        0.87620
H         -0.18032        2.66861        1.44555
H          0.36771       -1.48007        3.64503
H          1.22203       -2.61412        2.51258
H          2.65634       -0.81764        1.77833
H          1.80031        0.33986        2.88449
