44
2217.log
C          3.11173        2.71946       -0.23265
C          2.29330        1.72775       -1.05204
C          3.06592        1.15736       -2.23934
P          1.66916        0.30795       -0.03764
C          1.29464        1.05739        1.52333
N          1.08953        1.48332        2.56782
C          3.24357       -0.57456        0.60031
O          4.30747       -0.09998        0.32488
O          3.05541       -1.63921        1.30780
Rh         0.00546       -1.03110       -0.78882
Cl         0.16049       -1.99367        1.44593
C         -4.03606        1.85810       -0.02029
C         -3.25396        0.81748       -0.81675
C         -2.99568        1.28726       -2.24567
P         -1.60854        0.43246       -0.02738
C         -1.01632        2.10097        0.10200
N         -0.58691        3.16338        0.06662
C         -2.15467        0.19896        1.73825
O         -1.91418        0.91198        2.66122
O         -2.87568       -0.91690        1.77463
C         -1.84407       -2.26673       -1.22105
C         -0.74340       -3.00927       -1.58325
H          3.41539        3.54457       -0.87399
H          4.00551        2.24679        0.16646
H          2.52447        3.12491        0.58944
H          1.38502        2.22700       -1.42190
H          2.49947        0.35447       -2.71374
H          4.02553        0.76528       -1.91182
H          3.24186        1.93747       -2.97651
H          2.07030       -1.88604        1.43469
H          1.16775       -1.85820       -1.27957
H         -0.01275       -0.41363       -2.16707
H         -4.97406        2.07411       -0.52948
H         -4.27011        1.50629        0.98304
H         -3.47394        2.78661        0.06627
H         -3.81304       -0.12730       -0.83076
H         -2.40950        0.55642       -2.80283
H         -3.93839        1.44304       -2.76664
H         -2.44795        2.22888       -2.24020
H         -3.12290       -1.16543        2.68268
H         -2.34413       -2.46996       -0.27896
H         -2.45618       -1.80807       -1.99020
H         -0.48324       -3.11756       -2.63025
H         -0.36499       -3.78314       -0.92356
