50
2223.log
C         -0.43999       -4.06881        0.64251
O         -1.36324       -3.99577       -0.42076
O         -2.15659       -2.81817       -0.33249
C         -1.80301       -1.84663       -1.18225
O         -0.89181       -1.88806       -1.95812
C         -2.78301       -0.71365       -1.05044
P         -2.36655        0.46409        0.33642
C         -2.94449       -0.53339        1.75561
C         -3.79107        1.59632        0.10729
Rh        -0.38859        1.50485        0.69257
Cl         0.30976       -0.74322        1.14769
C          3.41255       -2.43739        1.52574
O          4.02823       -1.86193        0.39684
O          3.05885       -1.59314       -0.61138
C          2.68001       -0.31448       -0.69024
O          3.10402        0.58967       -0.02546
C          1.67169       -0.15170       -1.79196
P          0.64301        1.34273       -1.41483
C         -0.46085        1.24711       -2.88407
C          1.76737        2.67064       -2.01775
C          1.43221        2.86458        1.26080
C          1.19438        2.06508        2.34014
H         -0.94502       -4.26342        1.59322
H          0.15776       -3.15633        0.71903
H          0.19176       -4.91194        0.37074
H         -2.80550       -0.15172       -1.98445
H         -3.77283       -1.11527       -0.82542
H         -3.03029        0.12038        2.62258
H         -2.21178       -1.30818        1.97351
H         -3.90960       -0.98704        1.53236
H         -4.72743        1.04221        0.06406
H         -3.66040        2.17119       -0.80713
H         -3.80925        2.28719        0.94732
H         -1.09936        1.68508        2.01107
H         -0.96969        2.84984        0.33265
H          2.56983       -1.83288        1.87236
H          3.07157       -3.45551        1.31592
H          4.20149       -2.44846        2.27522
H          1.04161       -1.03944       -1.86788
H          2.19537       -0.00462       -2.74031
H         -1.25143        1.99005       -2.79395
H         -0.89254        0.25126       -2.93609
H          0.10507        1.43123       -3.79596
H          2.71335        2.64328       -1.48360
H          1.29208        3.63630       -1.85327
H          1.95662        2.53738       -3.08234
H          2.25135        2.61617        0.60413
H          1.09773        3.89557        1.25315
H          0.68155        2.44002        3.21833
H          1.78118        1.16499        2.48330
