44
2229.log
C          2.32153        2.16872        1.63062
O          1.41358        1.27056        1.00330
P          1.70757       -0.15007        0.31937
C          2.62955       -1.10327        1.59531
C          3.09011        0.18196       -0.91970
C          4.51061        0.35160       -0.41607
Cl         2.54281        1.65689       -1.75914
Rh        -0.18563       -1.03088       -0.54968
Cl        -0.40089       -2.51746        1.32933
C         -0.84734        0.30029        3.09871
O         -1.24373        1.04421        1.95182
P         -1.60564        0.38501        0.52269
C         -3.29812       -0.25572        0.84273
C         -1.92046        2.00856       -0.31224
C         -2.81558        2.98777        0.41365
Cl        -2.64662        1.52433       -1.85525
C         -0.55093       -2.78456       -1.88743
C         -1.73881       -2.07573       -1.50273
H          1.70470        2.86935        2.19462
H          2.89169        2.72060        0.88103
H          3.00022        1.65866        2.31604
H          1.92398       -1.36776        2.38104
H          3.46187       -0.53922        2.01198
H          2.99228       -2.02424        1.14520
H          3.05438       -0.61410       -1.66905
H          5.15519        0.64775       -1.24241
H          4.87556       -0.59425       -0.02079
H          4.58102        1.11265        0.35660
H          0.65097       -2.10298       -1.28578
H         -0.07633       -0.11000       -1.73890
H         -1.67330        0.27786        3.81248
H          0.00530        0.81147        3.54783
H         -0.57034       -0.72327        2.84109
H         -3.83075        0.43239        1.49777
H         -3.83612       -0.39540       -0.09076
H         -3.18956       -1.21887        1.34180
H         -0.95182        2.45755       -0.54982
H         -2.39149        3.19497        1.39337
H         -2.88750        3.91795       -0.14709
H         -3.81742        2.58365        0.53620
H         -0.24783       -2.73098       -2.92946
H         -0.39664       -3.76496       -1.44391
H         -2.39991       -2.58392       -0.80585
H         -2.26600       -1.52912       -2.28051
