44
2230.log
C          2.32163        2.16903        1.63011
O          1.41361        1.27072        1.00309
P          1.70755       -0.15001        0.31932
C          2.62967       -1.10304        1.59529
C          3.09009        0.18182       -0.91990
C          4.51064        0.35134       -0.41639
Cl         2.54288        1.65676       -1.75940
Rh        -0.18567       -1.03094       -0.54950
Cl        -0.40081       -2.51709        1.32969
C         -0.84645        0.30107        3.09848
O         -1.24360        1.04465        1.95164
P         -1.60566        0.38510        0.52269
C         -3.29799       -0.25576        0.84315
C         -1.92075        2.00841       -0.31253
C         -2.81581        2.98774        0.41329
Cl        -2.64712        1.52379       -1.85531
C         -0.55097       -2.78497       -1.88685
C         -1.73888       -2.07609       -1.50237
H          1.70483        2.87006        2.19364
H          2.89203        2.72044        0.88035
H          3.00010        1.65917        2.31590
H          1.92433       -1.36721        2.38127
H          3.46221       -0.53904        2.01157
H          2.99211       -2.02419        1.14531
H          3.05421       -0.61427       -1.66921
H          5.15517        0.64754       -1.24275
H          4.87558       -0.59458       -0.02123
H          4.58116        1.11230        0.35637
H          0.65094       -2.10317       -1.28546
H         -0.07645       -0.11024       -1.73894
H         -1.67192        0.27904        3.81284
H          0.00659        0.81223        3.54683
H         -0.56986       -0.72264        2.84100
H         -3.83068        0.43250        1.49800
H         -3.83607       -0.39591       -0.09022
H         -3.18919       -1.21870        1.34258
H         -0.95218        2.45741       -0.55036
H         -2.39166        3.19506        1.39296
H         -2.88774        3.91785       -0.14757
H         -3.81766        2.58366        0.53595
H         -0.24788       -2.73169       -2.92890
H         -0.39666       -3.76523       -1.44304
H         -2.39998       -2.58410       -0.80535
H         -2.26605       -1.52965       -2.28029
