50
2234.log
C          3.54340        1.40230       -1.68372
N          3.27365        2.04357       -0.41446
C          4.12625        3.19044       -0.18947
C          1.84859        2.28647       -0.21078
P          1.35865        0.65572        0.56621
C          0.71028        1.24533        2.18020
C          3.17440        0.41513        0.98546
O          3.84996       -0.47413        0.54097
Rh         0.47607       -1.14152       -0.50905
Cl         0.75184       -1.97052        1.72123
C         -4.07130        2.33876       -1.33959
N         -3.50855        1.49426       -0.30197
C         -3.62642        2.11708        1.00034
C         -2.15878        1.05511       -0.60052
P         -1.71979       -0.70185       -0.18548
C         -2.43178       -1.08469        1.44626
C         -4.69962       -0.12227       -0.34169
O         -5.72669        0.23604        0.05259
C          1.47265       -2.98170       -1.26661
C          0.04630       -3.06559       -1.25686
H          3.48127        2.11043       -2.51920
H          2.81872        0.60224       -1.83534
H          4.53994        0.96257       -1.65427
H          3.94538        3.99152       -0.91886
H          5.16662        2.87719       -0.26741
H          3.95811        3.58425        0.81240
H          1.70556        3.10724        0.49633
H          1.32485        2.53075       -1.14267
H         -0.23274        1.77333        2.03665
H          1.43890        1.91425        2.64045
H          0.55010        0.37841        2.81883
H          3.52088        1.05718        1.82089
H          1.92978       -1.55597       -0.77194
H          0.37934       -0.52938       -1.89916
H         -4.06253        1.80194       -2.28664
H         -3.51490        3.27722       -1.45007
H         -5.10495        2.57274       -1.08525
H         -3.12621        1.50553        1.74645
H         -4.68213        2.19637        1.26333
H         -3.18650        3.12255        1.00792
H         -1.40723        1.71068       -0.12987
H         -1.98527        1.10137       -1.68032
H         -1.90549       -0.52745        2.22072
H         -3.50084       -0.88487        1.46308
H         -2.24412       -2.14425        1.62390
H         -2.65226       -1.33031       -0.98745
H          1.97444       -2.94597       -2.22930
H          2.01555       -3.54654       -0.51397
H         -0.40968       -3.70086       -0.50098
H         -0.46761       -3.09144       -2.21444
