50
2235.log
C          1.09577       -1.44656       -2.60271
P          1.57240       -1.36125       -0.83238
C          2.40872       -2.98914       -0.64831
C          3.03439       -0.23812       -1.01127
N          3.54397        0.09101        0.30043
C          4.38119        1.27048        0.33935
C          3.57137        2.52938        0.11847
O          4.05512        3.61176       -0.05835
Rh         0.15579       -0.62234        0.79469
Cl         0.03798        1.26251       -0.68071
C         -2.91957       -2.23601        1.30736
P         -1.86540       -1.38915        0.06371
C         -1.98370       -2.62451       -1.29441
C         -3.05580       -0.14534       -0.61168
N         -3.38472        0.80999        0.42047
C         -4.08502        1.97806       -0.07004
C         -3.17968        2.84898       -0.91389
O         -3.58340        3.64332       -1.71732
C          0.58608        0.77314        2.47867
C         -0.79593        0.44149        2.36105
H          1.99567       -1.46545       -3.21792
H          0.51089       -2.34401       -2.79145
H          0.50752       -0.56365       -2.84703
H          3.12486       -3.15358       -1.45292
H          1.65488       -3.77419       -0.66547
H          2.91350       -3.02664        0.31486
H          2.66095        0.67450       -1.48463
H          3.78573       -0.69900       -1.67789
H          4.02656       -0.70819        0.69905
H          4.82762        1.35190        1.33635
H          5.20989        1.25377       -0.39026
H          2.47945        2.37053        0.14331
H          1.42308       -0.04593        1.42132
H          0.30939       -1.85470        1.66688
H         -2.42245       -3.16066        1.59510
H         -3.02481       -1.61545        2.19400
H         -3.90131       -2.46359        0.89162
H         -3.00088       -3.00819       -1.36780
H         -1.29913       -3.44670       -1.09257
H         -1.70924       -2.15013       -2.23434
H         -3.93800       -0.66144       -1.03808
H         -2.54039        0.38167       -1.42083
H         -3.92459        0.35612        1.15092
H         -4.38650        2.58815        0.78903
H         -4.99589        1.74032       -0.64809
H         -2.10545        2.69726       -0.71723
H          1.12570        0.40871        3.34819
H          0.89241        1.76608        2.16205
H         -1.46618        1.20091        1.96960
H         -1.22994       -0.16844        3.14911
