46
2244.log
C         -3.34347       -1.45997        0.01710
N         -2.32726       -0.47355        0.35562
C         -2.62162        0.26941        1.52565
F         -3.77380        1.04106        1.37359
P         -1.45351        0.39017       -0.83557
C         -2.61022        1.73533       -1.35163
C         -1.61506       -0.67805       -2.31141
Rh         0.69446        1.09695       -0.41636
Cl         0.49484        1.35003        1.96691
C          0.22880       -2.11297        1.83157
N          1.01883       -2.32395        0.62284
C          0.60438       -3.43565       -0.12693
F         -0.67117       -3.30136       -0.68646
P          1.74180       -0.90525       -0.02797
C          2.68351       -1.61256       -1.43322
C          3.09928       -0.78928        1.20476
C          1.56717        3.15489       -0.43130
C          2.54173        2.12630       -0.25249
H         -2.93440       -2.18635       -0.67870
H         -3.62187       -1.98422        0.93299
H         -4.24902       -1.01070       -0.40216
H         -2.82790       -0.39224        2.37634
H         -1.80858        0.96174        1.76513
H         -2.20411        2.23359       -2.22987
H         -3.59104        1.31930       -1.58161
H         -2.71321        2.46062       -0.54585
H         -1.10811       -0.15867       -3.12273
H         -1.12487       -1.63218       -2.14985
H         -2.65953       -0.82985       -2.57616
H          0.14194        2.51452       -0.58679
H          0.91448        0.97015       -1.90946
H         -0.84069       -2.15432        1.61863
H          0.45410       -1.13042        2.24228
H          0.48268       -2.88047        2.56664
H          0.52552       -4.31975        0.52109
H          1.26858       -3.63524       -0.97011
H          3.36527       -0.83386       -1.77121
H          3.25482       -2.48669       -1.12450
H          2.01948       -1.85708       -2.25947
H          2.74111       -0.28480        2.09953
H          3.91829       -0.21264        0.78077
H          3.43963       -1.79239        1.45714
H          1.56753        3.70307       -1.36905
H          1.32852        3.76844        0.43253
H          2.98589        2.04847        0.73466
H          3.24497        1.95556       -1.06426
