30
2245.log
C          2.63994       -0.16643       -2.11463
P          2.62846       -0.06902       -0.26960
Br         3.78302       -1.90593        0.06776
C          2.95152        3.19634        0.50623
O          2.00230        2.89804       -0.06266
O          3.88941        3.49404        1.08247
Rh         0.48213       -0.26037        0.40616
Cl        -0.44977        1.13844       -1.30038
C         -1.91320       -1.42905       -1.52741
P         -1.97039       -0.07368       -0.24302
Br        -3.72088       -1.27473        0.81415
C         -3.22562        1.15441       -0.85525
O         -3.58774        2.09919       -0.21322
O         -3.62449        0.86080       -2.08152
C         -0.50271        1.70007        1.71491
C         -1.62748        0.69502        1.50635
H          2.13288        0.70868       -2.51859
H          3.67502       -0.16890       -2.46001
H          2.14626       -1.07558       -2.46329
H          0.88709       -1.11569        1.57930
H          0.52194        1.26871        1.56163
H          0.51179       -1.59299       -0.25568
H         -1.15630       -1.23456       -2.28437
H         -1.69971       -2.37072       -1.01923
H         -2.90223       -1.48569       -1.98298
H         -4.28317        1.49738       -2.41091
H         -0.53202        2.03206        2.75485
H         -0.62520        2.57689        1.07668
H         -2.58633        1.20556        1.67386
H         -1.55640       -0.13739        2.21869
