46
2259.log
C         -3.12804       -2.89206        1.04330
C         -2.64749       -1.57907        1.63836
P         -1.54561       -0.63470        0.52287
C         -2.71821       -0.03969       -0.81587
N         -3.61375        0.93631       -0.22081
O         -4.53816        0.50048        0.42872
O         -3.35204        2.10059       -0.37750
C         -0.30555        2.94998       -0.69823
O         -0.41120        3.96528       -0.10785
O         -0.14109        2.75277       -1.97210
Rh         0.32740       -1.58303       -0.30212
Cl         0.28830       -0.19295       -2.28701
C          3.75538        0.61543        2.61843
C          3.06890       -0.51550        1.86014
P          1.67012       -0.00899        0.75995
C          0.80495        1.20992        1.87400
N         -0.47020        1.62556        1.32785
O         -0.31094        1.68820       -0.07423
O         -1.44368        0.63091        1.53781
C          2.60110        1.22287       -0.28661
O          2.52234        2.41198       -0.17395
O          3.38691        0.59174       -1.14355
C          1.33291       -3.16444       -1.55380
C          2.31128       -2.42157       -0.93062
H         -3.79235       -2.72364        0.19923
H         -2.28330       -3.49239        0.71035
H         -3.67821       -3.45536        1.79296
H         -3.49017       -0.93312        1.89973
H         -2.06291       -1.76413        2.54282
H         -3.27257       -0.91439       -1.16064
H         -2.14314        0.40746       -1.63121
H         -0.00976        1.77931       -2.20030
H         -0.69451       -2.49763       -0.93139
H          0.35237       -2.49370        0.90304
H          3.11011        1.03032        3.38781
H          4.05215        1.41991        1.94867
H          4.65121        0.23221        3.10351
H          2.66743       -1.25812        2.55649
H          3.79225       -1.02527        1.21690
H          1.40971        2.12189        1.94174
H          0.62924        0.78794        2.86622
H          3.83846        1.21138       -1.74407
H          1.08231       -4.15337       -1.18734
H          1.09086       -2.97946       -2.59488
H          2.85449       -1.67095       -1.49331
H          2.83350       -2.84103       -0.07679
