48
2271.log
C          3.63334       -3.20561       -0.31631
C          3.51309       -1.69393       -0.16532
C          2.11180       -1.27581        0.18894
O          1.16485       -2.02712        0.13353
P          1.80866        0.43512        0.85777
C          1.99827        0.11528        2.66648
C          3.38063        1.39340        0.48999
O          3.13220        2.73469        0.21760
Rh        -0.11964        1.15711       -0.03348
Cl         1.39070        0.42097       -1.80703
C         -4.86709        0.74742        1.36821
C         -3.51345        0.07840        1.58226
C         -3.05690       -0.69921        0.37486
O         -3.83409       -1.20415       -0.40396
P         -1.19658       -0.93652        0.18708
C         -1.17247       -2.03014        1.68221
C         -1.27571       -2.16425       -1.22611
O         -1.99318       -1.67978       -2.31830
C         -1.15030        2.61937       -1.39852
C         -1.86616        1.44425       -1.43258
H          2.94716       -3.55957       -1.08088
H          4.64678       -3.47473       -0.60181
H          3.38742       -3.70367        0.61879
H          4.19468       -1.31705        0.60253
H          3.77079       -1.20998       -1.11017
H          1.18481       -0.52364        3.00578
H          1.93785        1.07121        3.18504
H          2.95548       -0.36113        2.88102
H          3.90285        0.91513       -0.34928
H          4.01429        1.36862        1.38258
H          2.61174        2.78184       -0.59836
H          0.55564        2.49736        0.05887
H         -0.83343        1.64482        1.19915
H         -4.79293        1.53034        0.61655
H         -5.21956        1.19236        2.29509
H         -5.59654        0.01598        1.02844
H         -3.59430       -0.63901        2.40437
H         -2.74514        0.80823        1.84881
H         -1.22253       -1.40759        2.57405
H         -2.03386       -2.69793        1.65401
H         -0.26180       -2.62041        1.70152
H         -0.25877       -2.35482       -1.57525
H         -1.69961       -3.10151       -0.83281
H         -2.91955       -1.58476       -2.04018
H         -1.53114        3.47531       -0.85216
H         -0.45314        2.84958       -2.19867
H         -1.73308        0.74828       -2.25586
H         -2.82205        1.38701       -0.92345
