42
2274.log
C          3.78969       -1.19984        0.73054
C          3.51604       -0.08244       -0.26858
P          1.82190        0.62391       -0.04288
C          1.97188        1.35678        1.62572
C          2.07145        2.16243       -1.06315
F          0.98732        2.98828       -0.89076
Rh         0.08337       -0.75818       -0.57111
Cl         0.14998       -1.43182        1.73128
C         -1.79449        1.38407        2.40512
C         -1.72333        1.99663        1.01223
P         -1.64827        0.73057       -0.32837
C         -1.99846        1.80140       -1.77690
C         -3.37090        0.03109       -0.19389
F         -3.48161       -0.88910        0.80761
C          0.04346       -2.94522       -1.05500
C         -1.25046       -2.34746       -0.98395
H          2.95672       -1.90075        0.75770
H          3.91515       -0.79822        1.73281
H          4.69297       -1.74384        0.46154
H          3.57128       -0.46633       -1.29201
H          4.25591        0.71715       -0.16081
H          2.96599        1.78395        1.75940
H          1.21508        2.12845        1.75373
H          1.79211        0.56930        2.35547
H          2.12994        1.92158       -2.12921
H          2.95550        2.72836       -0.74708
H          1.11718       -1.85492       -0.83419
H          0.14794       -0.38096       -2.04260
H         -0.99990        0.65395        2.54224
H         -2.74162        0.87068        2.55346
H         -1.69841        2.15588        3.16700
H         -0.82883        2.61572        0.90337
H         -2.59478        2.63301        0.82140
H         -2.91153        2.37521       -1.62481
H         -1.16345        2.48152       -1.91890
H         -2.09708        1.18193       -2.66588
H         -3.63756       -0.47489       -1.13016
H         -4.09264        0.83086        0.01997
H          0.39789       -3.28009       -2.02613
H          0.33723       -3.59417       -0.23481
H         -1.85936       -2.58937       -0.11799
H         -1.81229       -2.25962       -1.91097
