34
2277.log
C          1.69540        1.31317        1.86302
P          1.65683        0.59196        0.17572
Cl         3.43228       -0.27971        0.14345
C          2.03093        2.10772       -0.87001
N          2.27706        1.81483       -2.25578
Rh        -0.05308       -0.79752       -0.43288
Cl         0.33459       -1.74937        1.72152
C         -2.23047        0.22191        2.18140
P         -1.71277        0.47006        0.44299
Cl        -1.38621        2.43412        0.43493
C         -3.38451        0.45099       -0.41118
N         -3.35241        0.80333       -1.80446
C         -0.09181       -2.87513       -1.26493
C         -1.38239       -2.37707       -0.90412
H          2.63584        1.84581        2.00350
H          0.85869        1.99584        1.99379
H          1.61806        0.49929        2.58342
H          2.91187        2.60128       -0.44564
H          1.17587        2.78488       -0.79595
H          1.46671        1.36099       -2.66908
H          3.06814        1.18418       -2.35030
H          0.96895       -1.76429       -1.04531
H         -0.24442       -0.15888       -1.80465
H         -3.01996        0.92414        2.44769
H         -1.36954        0.35194        2.83523
H         -2.57968       -0.80347        2.28614
H         -4.04382        1.14765        0.11883
H         -3.78816       -0.56123       -0.30737
H         -2.72975        0.18313       -2.31472
H         -3.00910        1.75141       -1.92628
H          0.11467       -3.03547       -2.31920
H          0.35544       -3.62046       -0.61364
H         -1.83852       -2.79621       -0.01069
H         -2.09030       -2.19459       -1.70880
