44
2278.log
C          3.28548       -1.28527       -1.25010
P          1.89687       -0.17001       -0.80508
C          1.95560        1.00182       -2.20574
C          2.74009        0.83238        0.55871
C          1.95613        2.01634        0.71934
N          1.29654        2.94506        0.82852
C          4.17384        1.14021        0.22325
O          4.54782        1.87357       -0.65209
O          5.00696        0.46050        1.01242
Rh        -0.01071       -1.24007       -0.15837
Cl         0.66932       -1.02999        2.12746
C         -1.33440        1.99714       -1.00235
P         -1.43762        0.53807        0.09102
C         -1.57904        1.31890        1.73567
C         -3.26145        0.07588       -0.18465
C         -3.39757       -0.22856       -1.58024
N         -3.50256       -0.47642       -2.69089
C         -4.18608        1.18146        0.24647
O         -4.35095        2.23169       -0.31145
O         -4.81215        0.85485        1.38241
C         -0.35458       -3.41917        0.27334
C         -1.51554       -2.61757        0.44990
H          4.14266       -0.72296       -1.61937
H          2.93450       -1.95843       -2.03235
H          3.57135       -1.87569       -0.37881
H          1.27699        1.83343       -2.03259
H          2.96819        1.38299       -2.33734
H          1.63746        0.46562       -3.09906
H          2.67119        0.22214        1.47131
H          5.93302        0.65884        0.79880
H          0.84282       -2.50179       -0.25532
H         -0.43161       -1.38825       -1.61054
H         -0.48259        2.60012       -0.68940
H         -2.24353        2.59291       -0.92512
H         -1.20595        1.66735       -2.03247
H         -2.24188        2.18227        1.69467
H         -1.93667        0.58990        2.46253
H         -0.58416        1.64304        2.03758
H         -3.47665       -0.81185        0.41824
H         -5.39915        1.57132        1.67313
H         -0.33592       -4.11497       -0.55971
H          0.15267       -3.77696        1.16459
H         -1.84148       -2.43950        1.47186
H         -2.32272       -2.75406       -0.26551
