40
2279.log
C          4.24387        1.08627       -1.00658
C          2.80569        0.92379       -1.48391
P          1.65936        0.19697       -0.22679
C          2.71115       -1.13696        0.29988
N          3.38499       -2.00800        0.61832
C          1.88433        1.29657        1.27380
O          3.10458        1.11485        1.92588
Rh        -0.37329       -0.76666       -0.63889
Cl         0.02015       -1.46391        1.62348
C         -3.24808       -0.09860        2.17064
C         -2.35164        1.07982        1.81437
P         -1.66866        0.91454        0.11012
C         -3.18633        1.15527       -0.78249
N         -4.15207        1.30282       -1.38177
C         -0.93661        2.62466       -0.15240
O          0.20827        2.55193       -0.95761
C         -0.86735       -2.87410       -1.22592
C         -2.01248       -2.09211       -0.87610
H          4.29389        1.70437       -0.11400
H          4.83522        1.56021       -1.78796
H          4.69105        0.12101       -0.77735
H          2.76235        0.26307       -2.35690
H          2.38782        1.89062       -1.77132
H          1.03165        1.12096        1.94636
H          1.86143        2.33193        0.92013
H          3.12986        0.23307        2.31993
H          0.38423       -1.99781       -1.17124
H         -0.51619       -0.27349       -2.07452
H         -4.05685       -0.20490        1.44820
H         -2.66077       -1.01469        2.18546
H         -3.68113        0.04464        3.15822
H         -1.49955        1.11871        2.49917
H         -2.89738        2.02863        1.86699
H         -0.61275        3.01821        0.81652
H         -1.68931        3.30053       -0.58211
H         -0.04929        2.23563       -1.83546
H         -0.75877       -3.17640       -2.26339
H         -0.54529       -3.63108       -0.51558
H         -2.49736       -2.32162        0.06871
H         -2.70645       -1.82366       -1.66838
