32
228.log
C          3.37031       -0.95632       -0.10534
P          1.82855       -0.03461       -0.34287
C          2.51010        1.37031       -1.39945
O          3.51412        1.20442       -2.02477
N          1.73832        0.90617        1.19398
O          2.74673        1.02594        1.83972
O          0.68240        1.47766        1.45265
Rh        -0.21622       -0.99753       -0.51898
Cl         0.65495       -1.58131        1.66969
C         -1.92165        0.86680        2.10085
P         -1.30332        0.78256        0.38840
C         -1.01318        2.55698       -0.13884
O         -0.13171        2.88944       -0.86696
N         -2.95100        0.86108       -0.37590
O         -3.06111        1.71353       -1.23615
O         -3.81594        0.09371       -0.02849
C         -0.86128       -3.10720       -0.90924
C         -1.88779       -2.27567       -0.36360
H          4.10797       -0.32221        0.38931
H          3.73288       -1.23276       -1.09635
H          3.18001       -1.84918        0.48816
H          1.89418        2.28119       -1.46058
H          0.39970       -2.26275       -1.13739
H         -0.61525       -0.55286       -1.90942
H         -1.13960        0.54671        2.78424
H         -2.77395        0.18969        2.17824
H         -2.22270        1.88785        2.33836
H         -1.72378        3.28249        0.30367
H         -0.97674       -3.44315       -1.93515
H         -0.41827       -3.85143       -0.25254
H         -2.16368       -2.43832        0.67595
H         -2.72969       -2.02068       -1.00121
