44
2282.log
C          2.98627       -1.26898       -1.97217
O          2.92478       -1.39274       -0.55921
P          1.66456       -0.94504        0.33154
C          2.09863       -1.92726        1.79940
O          2.23237        0.49572        1.00631
C          2.35945        1.55695        0.21219
C          2.71776        2.80140        0.97426
O          2.20488        1.49102       -0.97842
Rh        -0.44565       -1.01263       -0.52869
Cl        -1.08813       -2.26475        1.41342
C         -3.80124        0.96063        0.32066
O         -2.63512        1.15659        1.10892
P         -1.12881        0.73576        0.76889
C         -0.57782        0.82055        2.50701
O         -0.44808        2.23120        0.35912
C         -0.79049        2.65260       -0.86257
C          0.01022        3.82196       -1.34227
O         -1.65936        2.10053       -1.48499
C         -1.45962       -2.51668       -1.82520
C         -2.30704       -1.44175       -1.40942
H          3.52978       -2.13731       -2.34594
H          1.98282       -1.23728       -2.40607
H          3.51171       -0.35253       -2.24287
H          1.84237       -2.96389        1.60107
H          3.16586       -1.82743        1.98442
H          1.52230       -1.58797        2.65464
H          3.13174        3.54701        0.30224
H          1.80723        3.18886        1.42804
H          3.42382        2.56311        1.76475
H         -0.04553       -2.28679       -1.28193
H         -0.08467       -0.16828       -1.72687
H         -3.58983        1.07621       -0.74100
H         -4.51121        1.72563        0.63818
H         -4.22186       -0.02571        0.52013
H          0.50433        0.85423        2.57546
H         -0.94849       -0.06455        3.01604
H         -1.01720        1.71140        2.95130
H          0.16606        4.53455       -0.53767
H         -0.48665        4.29136       -2.18550
H          0.97756        3.43429       -1.66146
H         -1.19307       -2.57610       -2.87701
H         -1.62575       -3.48590       -1.36234
H         -3.06351       -1.68422       -0.66956
H         -2.63413       -0.73562       -2.16683
