50
2284.log
C          0.25485       -3.37058       -2.05428
N          0.68596       -2.98533       -0.72202
C          1.83336       -2.09613       -0.71099
P          1.53942       -0.73775        0.51970
C          1.00371       -1.70119        1.99526
C          3.31205       -0.45031        1.03814
C          3.50468        0.37372        2.27650
O          4.21661       -0.91024        0.38874
Rh         0.55314        1.22758       -0.15413
Cl         0.21993        0.34385       -2.35105
C         -3.32619       -3.08047        0.10769
N         -3.06477       -1.68559        0.40436
C         -1.98321       -1.15122       -0.39874
P         -1.64830        0.63012       -0.02365
C         -2.81989        1.44576       -1.16331
C         -2.61345        0.85209        1.56324
C         -2.05419        0.14565        2.75145
O         -3.59273        1.55152        1.56870
C          1.47216        3.06766       -1.03621
C          0.05434        3.15122       -0.88209
H          0.00602       -2.46552       -2.60691
H         -0.63761       -3.98998       -1.97009
H          1.01873       -3.92563       -2.61463
H          0.87812       -3.81316       -0.16702
H          1.93928       -1.61254       -1.68634
H          2.78390       -2.58991       -0.46708
H          0.96851       -1.04371        2.86113
H          1.70588       -2.51446        2.17821
H          0.01094       -2.10558        1.81172
H          2.68978        1.08755        2.38086
H          3.50260       -0.29347        3.13793
H          4.46366        0.88637        2.24617
H          1.98491        1.69427       -0.47763
H          0.63982        1.78918        1.25564
H         -4.14839       -3.42730        0.73156
H         -3.57866       -3.26345       -0.94655
H         -2.43296       -3.65797        0.34856
H         -3.91207       -1.14335        0.25035
H         -1.07332       -1.73254       -0.20286
H         -2.16788       -1.20028       -1.48670
H         -2.43276        1.35891       -2.17820
H         -3.79656        0.96627       -1.08916
H         -2.91944        2.49512       -0.88830
H         -2.57521        0.43201        3.66187
H         -2.16391       -0.92382        2.57636
H         -0.99422        0.38064        2.82342
H          2.09237        3.69668       -0.40405
H          1.85705        2.94766       -2.04528
H         -0.53887        3.10718       -1.79052
H         -0.33552        3.83796       -0.13532
