42
2290.log
C          2.83023        0.20881        1.94561
C          2.44468        0.93248        0.65290
C          3.58166        1.53604        0.03436
N          4.48728        1.96854       -0.51977
P          1.68829       -0.23795       -0.64304
C          2.92951       -1.58029       -0.56769
N          2.09891        0.39604       -2.13630
Rh        -0.49063       -0.89419       -0.47896
Cl         0.03937       -1.91850        1.63974
C         -0.63751        3.06114       -0.56923
C         -1.84959        2.38321        0.06104
C         -2.86130        2.09458       -0.91617
N         -3.67292        1.84929       -1.68412
P         -1.38984        0.73489        0.81826
C         -2.99189        0.37629        1.65295
N         -0.40238        1.28707        2.06294
C         -1.41162       -2.79836       -1.21561
C         -2.33292       -1.93577       -0.55002
H          3.78446       -0.30160        1.83417
H          2.91883        0.92113        2.76412
H          2.07303       -0.53202        2.19668
H          1.69025        1.70118        0.85507
H          2.78169       -2.20766       -1.44637
H          2.78076       -2.17787        0.32899
H          3.93802       -1.16600       -0.58432
H          1.40734        0.99916       -2.55916
H          3.03601        0.77661       -2.22645
H         -0.01009       -2.10891       -1.28397
H         -0.84289       -0.19089       -1.76950
H         -0.13883        2.36299       -1.24202
H          0.06172        3.36236        0.20804
H         -0.93393        3.94264       -1.13553
H         -2.28643        3.01945        0.84203
H         -3.26700        1.21097        2.30112
H         -3.77601        0.21059        0.91768
H         -2.86768       -0.52201        2.25780
H         -0.90607        1.76771        2.80410
H          0.10168        0.49386        2.45492
H         -1.52489       -2.93601       -2.28656
H         -1.09655       -3.69687       -0.69126
H         -2.67478       -2.25020        0.43226
H         -3.10006       -1.45491       -1.15072
