48
2306.log
C          6.17627        0.28843        0.13113
C          5.15657       -0.56497       -0.60340
O          3.87594       -0.29919       -0.05954
C          2.84103       -1.03830       -0.64990
P          1.32854       -0.49608        0.25455
C          1.79086       -0.80329        1.99244
C          1.69344        1.30320        0.05088
O          1.76810        2.08598        0.95300
Rh        -0.62060       -1.23805       -0.61380
Cl        -1.24890       -2.22425        1.47744
C         -0.36407        4.72930       -0.16539
C         -0.50239        3.73865       -1.31748
O         -0.70610        2.40866       -0.87529
C         -2.02858        2.09676       -0.50587
P         -1.78368        0.49748        0.37809
C         -1.23740        1.10438        2.02117
C         -3.52356        0.16506        0.89308
O         -4.46567        0.77402        0.46614
C         -1.84610       -2.72781       -1.71810
C         -2.66544       -1.65771       -1.41010
H          5.92256        1.33933        0.02424
H          7.16790        0.11501       -0.27648
H          6.17470        0.03912        1.18840
H          5.15647       -0.32956       -1.67859
H          5.39086       -1.63421       -0.48865
H          2.73166       -0.81783       -1.72404
H          2.98820       -2.12392       -0.53365
H          2.35042        0.05268        2.36858
H          2.40251       -1.70391        2.03006
H          0.89150       -0.97080        2.58287
H          1.84821        1.59647       -1.00314
H          0.25272       -2.39376       -1.04365
H         -0.26360       -0.54959       -1.91444
H         -0.09205        5.70661       -0.55379
H         -1.29649        4.82511        0.38620
H          0.41218        4.38668        0.51458
H          0.42877        3.70901       -1.89027
H         -1.31835        4.03627       -1.99028
H         -2.67622        1.97916       -1.38794
H         -2.47266        2.84744        0.16160
H         -1.95139        1.84004        2.39499
H         -1.19845        0.25154        2.69820
H         -0.25089        1.55886        1.93919
H         -3.62514       -0.62395        1.66269
H         -1.47355       -2.85278       -2.72933
H         -1.91623       -3.63843       -1.13146
H         -3.38397       -1.76394       -0.60282
H         -2.93630       -0.93493       -2.17348
