34
2323.log
C          2.34849        2.00391       -1.47533
P          1.73111        0.82289       -0.19299
C          1.12027        1.95809        1.14393
O          0.06034        2.56628        1.01572
C          3.34543        0.33693        0.56509
Br         4.27603       -0.77458       -0.73236
Rh         0.01477       -0.72454        0.02329
Cl         0.62589        0.04809        2.27655
C         -2.55369        1.29001        1.45455
P         -1.63160        0.81511       -0.03698
C         -1.21160        2.45519       -0.80090
O         -1.95681        3.39054       -0.73998
C         -3.04810        0.47955       -1.18354
Br        -4.09543       -1.01968       -0.56963
C          0.32915       -2.93087        0.61125
C         -1.04481       -2.37324        0.66034
H          2.01148        1.67899       -2.45990
H          3.43759        2.04422       -1.48022
H          1.95125        2.99962       -1.27435
H          1.86240        2.30184        1.88446
H          3.97652        1.20459        0.77203
H          3.21173       -0.26078        1.46757
H          1.03611       -2.05218        0.17483
H         -0.26849       -1.07309       -1.41401
H         -1.85185        1.53791        2.24795
H         -3.14639        2.17384        1.21022
H         -3.19265        0.46529        1.77370
H         -0.28751        2.45730       -1.40904
H         -3.71080        1.34767       -1.21895
H         -2.68884        0.23124       -2.18257
H          0.46744       -3.74627       -0.09591
H          0.76068       -3.17423        1.58183
H         -1.47020       -2.26356        1.65838
H         -1.75632       -2.82889       -0.02414
