42
2324.log
C         -4.64011       -0.31644        2.80398
C         -3.63909       -0.43368        1.66153
C         -2.83039        0.84834        1.49858
P         -1.60068        0.67459        0.12536
Cl        -0.80550        2.46606        0.12802
C         -2.77182        0.74420       -1.32271
O         -3.40790       -0.21380       -1.66569
O         -2.86883        1.95301       -1.85028
Rh        -0.25825       -1.12872       -0.18618
Cl        -0.22719        0.04862       -2.29551
C          4.39558        2.63563       -1.12716
C          3.71165        1.77054       -0.07534
C          2.49549        1.06895       -0.67131
P          1.62963       -0.07409        0.48619
Cl         1.48150        0.96076        2.14867
C          3.08181       -1.14314        0.95884
O          3.47711       -1.32872        2.07299
O          3.59565       -1.70510       -0.12938
C         -0.65429       -3.05436       -1.24597
C          0.72512       -2.83741       -0.94800
H         -5.34309        0.49282        2.61746
H         -4.12671       -0.11629        3.74187
H         -5.20235       -1.24050        2.91003
H         -4.16538       -0.65588        0.73013
H         -2.95006       -1.25979        1.85792
H         -3.47833        1.70632        1.28680
H         -2.26334        1.06061        2.41032
H         -3.43487        1.95218       -2.64134
H         -1.50393       -1.89111       -0.64729
H         -0.38964       -1.76582        1.18335
H          3.70594        3.38525       -1.50774
H          5.25533        3.14454       -0.69844
H          4.73580        2.02781       -1.96259
H          4.42108        1.03206        0.30806
H          3.40052        2.39720        0.76268
H          2.77319        0.45397       -1.53292
H          1.75688        1.79699       -1.01777
H          4.32626       -2.31119        0.08740
H         -1.16876       -3.85363       -0.72136
H         -0.97246       -2.93123       -2.27741
H          1.38212       -2.57807       -1.77477
H          1.18715       -3.48280       -0.20555
