46
233.log
C         -3.49573        3.20761        0.39947
C         -3.09160        1.74449        0.26931
C         -2.07443        1.54246       -0.84417
P         -1.43519       -0.17488       -0.88083
O         -0.75447       -0.18881       -2.32530
O         -2.88203       -0.86029       -1.16391
C         -2.99346       -2.26210       -1.30119
Rh         0.00433       -1.01279        0.71094
Cl         1.29986       -1.88264       -1.13756
C          3.45682        1.69652       -2.82571
C          3.06232        1.03172       -1.51255
C          1.80038        1.66795       -0.93970
P          1.23491        0.89817        0.64117
O          2.59615        0.77516        1.49657
O          0.60544        2.29648        1.20261
C          0.00200        2.36863        2.48090
C          0.27325       -2.99111        1.71782
C          1.26168       -2.00479        2.05981
H         -3.94584        3.56182       -0.52531
H         -4.21665        3.33619        1.20344
H         -2.62566        3.82470        0.61387
H         -2.66010        1.39601        1.21030
H         -3.97141        1.13407        0.06294
H         -2.51552        1.73194       -1.82545
H         -1.22162        2.21008       -0.70395
H          0.05017       -0.76180       -2.28828
H         -2.65020       -2.77216       -0.39403
H         -4.04915       -2.47971       -1.46200
H         -2.41158       -2.62283       -2.15327
H         -0.70969       -2.37921        0.80777
H         -0.85647       -0.50899        1.84716
H          2.66242        1.58609       -3.56004
H          4.35855        1.23930       -3.22528
H          3.64463        2.75910       -2.68004
H          2.88664       -0.03073       -1.68223
H          3.88715        1.12048       -0.80096
H          0.98998        1.59046       -1.66505
H          1.96147        2.72936       -0.72351
H          3.14437        1.56604        1.44203
H         -0.57727        3.29118        2.50669
H         -0.65567        1.51323        2.65094
H          0.76204        2.38945        3.26561
H         -0.41266       -3.30549        2.50048
H          0.59473       -3.81077        1.07949
H          2.26193       -2.14328        1.65959
H          1.25888       -1.62196        3.07656
