36
2341.log
C         -3.23025       -1.30698        2.06481
C         -3.35135       -0.81435        0.63096
P         -1.81571        0.05778        0.09140
Cl        -1.94593        1.72537        1.13713
C         -2.40400        0.63435       -1.57736
F         -3.63742        1.21623       -1.45320
Rh         0.18330       -1.02320        0.15048
Cl         0.28466       -0.82551       -2.23818
C          2.76024        0.78005        2.54352
C          2.05099        1.72720        1.58716
P          1.44781        0.85591        0.07489
Cl         0.65361        2.37956       -0.89802
C          3.00876        0.76028       -0.93741
F          3.94433       -0.01002       -0.30577
C          0.74478       -3.18977       -0.00938
C          1.86112       -2.30530        0.11648
H         -3.11218       -0.46755        2.74720
H         -4.11942       -1.86364        2.35233
H         -2.36204       -1.95697        2.17124
H         -3.49572       -1.65527       -0.05389
H         -4.19368       -0.12484        0.52433
H         -2.49418       -0.22490       -2.24854
H         -1.71951        1.37075       -2.00811
H         -0.54624       -2.37538        0.06277
H          0.13788       -1.08513        1.66517
H          3.03050        1.30341        3.45799
H          3.66438        0.37631        2.09555
H          2.10255       -0.04894        2.79962
H          1.16495        2.15313        2.06817
H          2.70564        2.54859        1.28006
H          2.78412        0.30162       -1.90731
H          3.43773        1.76161       -1.07221
H          0.52973       -3.85695        0.82031
H          0.57447       -3.63611       -0.98515
H          2.47050       -2.15842       -0.77002
H          2.43699       -2.34202        1.03704
