34
2348.log
C         -4.03341       -0.00211       -1.29869
C         -3.29591       -1.06056       -0.49009
P         -1.61589       -0.45178       -0.04172
F         -2.44720        0.77806        0.99414
C         -0.84183       -1.02410        1.59937
O         -0.01573       -2.08399        1.41060
Rh         0.18982        1.00104       -0.40434
Cl         0.16558        0.45112        1.99278
C          4.05584       -0.31335       -0.00416
C          2.92842       -1.24208        0.42649
P          1.39909       -0.86409       -0.51668
F          1.85150       -1.48299       -1.93815
C          0.20814       -2.22544       -0.00586
O         -0.94664       -2.03901       -0.64867
C          0.09733        3.24996       -0.10899
C          1.44449        2.64015       -0.25644
H         -4.10473        0.92382       -0.73346
H         -3.50185        0.19904       -2.22644
H         -5.03943       -0.34151       -1.53713
H         -3.17982       -1.98087       -1.05809
H         -3.81880       -1.26215        0.44853
H         -1.50489       -1.17455        2.45119
H         -0.72437        2.35756       -0.21651
H          0.14931        1.14058       -1.89402
H          4.24032       -0.41884       -1.07130
H          3.78951        0.72289        0.19328
H          4.97196       -0.54809        0.53325
H          2.71138       -1.13476        1.49072
H          3.17764       -2.28750        0.22111
H          0.63251       -3.22628       -0.16050
H         -0.17852        3.94429       -0.90067
H         -0.11148        3.67435        0.87286
H          2.06059        2.67191        0.64331
H          2.00773        2.95590       -1.13129
