46
2351.log
C         -0.14486        3.75766       -0.86865
N         -0.41465        2.68047        0.07220
C         -1.60767        2.92493        0.88284
C         -2.70145        2.11552        0.20983
P         -1.79869        0.61912       -0.41748
C         -1.44581        0.94906       -2.19242
Br        -3.68768       -0.48401       -0.89412
Rh        -0.57326       -0.73124        0.98806
Cl        -0.29015       -2.24415       -0.87360
C          3.63299       -1.67876       -3.03204
N          4.07719       -0.76560       -1.99429
C          3.30290        0.45890       -1.90356
C          1.86790        0.24004       -1.42324
P          1.57691       -0.30981        0.31980
C          2.81977       -1.62838        0.56449
Br         2.68565        1.32641        1.33310
C         -1.26609       -2.38775        2.33439
C          0.14384       -2.22298        2.33182
H          0.01390        4.71597       -0.36089
H         -0.98642        3.86755       -1.55263
H          0.75198        3.53052       -1.44440
H          0.39759        2.58742        0.67880
H         -1.85261        3.99050        0.96067
H         -1.43937        2.53592        1.88861
H         -3.49544        1.82325        0.90031
H         -3.15275        2.64271       -0.63512
H         -1.24137       -0.01582       -2.66091
H         -0.59011        1.60044       -2.32405
H         -2.32685        1.39096       -2.66042
H         -1.94479       -1.21539        1.43887
H         -0.61743        0.27047        2.12267
H          3.53521       -1.19755       -4.01619
H          4.35045       -2.49287       -3.10974
H          2.66877       -2.10312       -2.75564
H          5.04834       -0.51911       -2.16176
H          3.82698        1.13234       -1.21741
H          3.23490        0.97229       -2.88267
H          1.36108       -0.49402       -2.05067
H          1.33272        1.18982       -1.51815
H          2.96122       -1.80500        1.63179
H          2.44859       -2.53460        0.08869
H          3.75947       -1.34011        0.09300
H         -1.81794       -2.12455        3.23128
H         -1.68374       -3.22831        1.78728
H          0.72464       -2.98373        1.81869
H          0.61337       -1.83661        3.23331
