44
2363.log
C          2.14329       -2.46435        1.19016
P          1.62459       -0.93734        0.33313
C          3.29464       -0.35453       -0.21229
C          3.41137        1.13399       -0.58600
N          4.70687        1.48614       -1.11711
N          1.49401        0.18364        1.74044
O          2.12329       -0.05485        2.73898
O          0.82584        1.18096        1.54718
Rh        -0.32006       -0.97628       -0.83551
Cl        -1.03981       -1.77542        1.33120
C         -2.41607        1.76970       -1.45480
P         -1.19099        1.06947       -0.26684
C         -1.93197        1.52812        1.35522
C         -3.45607        1.35030        1.45893
N         -3.92745       -0.00632        1.30975
N         -0.08729        2.47502       -0.55466
O         -0.26748        3.50582        0.03868
O          0.71754        2.29296       -1.43661
C         -1.28388       -2.70113       -1.88066
C         -2.11478       -1.54464       -1.81132
H          2.81766       -2.22042        2.01115
H          1.26595       -2.97928        1.57831
H          2.64928       -3.10452        0.46753
H          3.52882       -0.96833       -1.09021
H          4.01078       -0.60035        0.58173
H          3.24034        1.75530        0.29815
H          2.65624        1.39281       -1.33178
H          4.89126        0.99889       -1.98624
H          5.44726        1.26683       -0.45967
H          0.13020       -2.37701       -1.26288
H          0.22395       -0.43062       -2.13387
H         -1.96745        1.77167       -2.44830
H         -3.31370        1.15592       -1.47696
H         -2.67481        2.78918       -1.16490
H         -1.64829        2.56989        1.53512
H         -1.45767        0.90627        2.11736
H         -3.76423        1.70012        2.44900
H         -3.96791        1.96971        0.71750
H         -3.50639       -0.60437        2.01456
H         -3.63595       -0.37535        0.40911
H         -0.90449       -2.99940       -2.85303
H         -1.53042       -3.53528       -1.22976
H         -2.96774       -1.60316       -1.13984
H         -2.32271       -1.01922       -2.73902
