46
2369.log
C          2.57674       -0.25102        2.02280
C          2.28928        0.64335        0.81946
C          3.50837        1.29282        0.30490
O          4.60769        0.87342        0.18346
F          3.24382        2.57254       -0.12723
P          1.56810       -0.38449       -0.60624
C          2.82298       -1.70733       -0.71264
C          2.00276        0.62499       -2.07274
Rh        -0.59393       -1.13671       -0.49656
Cl        -0.00968       -2.46973        1.41183
C         -2.03637        3.26401        1.22073
C         -1.33843        2.23789        0.33066
C         -1.88743        2.30004       -1.04832
O         -3.01348        2.27008       -1.40430
F         -0.90106        2.42000       -1.98443
P         -1.54831        0.43313        0.85912
C         -3.35971        0.34804        1.10434
C         -0.99984        0.51380        2.60670
C         -1.46868       -2.99359       -1.39995
C         -2.40438       -2.22955       -0.64286
H          1.77552       -0.97820        2.15089
H          3.51293       -0.78376        1.87816
H          2.66204        0.34687        2.92857
H          1.54402        1.40888        1.05486
H          2.71036       -2.19744       -1.68048
H          2.63770       -2.43620        0.07513
H          3.82974       -1.29967       -0.62358
H          1.51242        1.59540       -2.02592
H          1.62223        0.09926       -2.94804
H          3.07987        0.75484       -2.16839
H         -0.08203       -2.25938       -1.40475
H         -0.97179       -0.32845       -1.71751
H         -3.11488        3.20207        1.10381
H         -1.77550        3.11640        2.26501
H         -1.72474        4.26683        0.93240
H         -0.26094        2.42988        0.29048
H         -3.86907        0.47915        0.15148
H         -3.69172        1.10601        1.81161
H         -3.59476       -0.63807        1.50261
H         -1.73533        1.01945        3.22888
H         -0.03294        1.00361        2.69266
H         -0.88901       -0.51738        2.94199
H         -1.59301       -3.03044       -2.47817
H         -1.11443       -3.92472       -0.96667
H         -2.71237       -2.64230        0.31392
H         -3.19989       -1.72651       -1.18523
