46
2374.log
C         -2.20667        3.72605       -0.25866
N         -1.99306        2.50552        0.49815
C         -2.49197        1.32682       -0.18063
P         -1.86720       -0.22042        0.62708
C         -2.38000        0.03360        2.36845
C         -3.23771       -1.33919        0.06430
F         -4.46228       -0.82992        0.42562
Rh         0.15000       -1.16059        0.09266
Cl        -0.69574       -0.83965       -2.13019
C          4.96863       -0.09336        1.53350
N          3.55995        0.19214        1.36511
C          3.22171        0.60772        0.02279
P          1.38580        0.74641       -0.05702
C          1.11468        2.10492        1.12473
C          1.21956        1.63996       -1.66938
F          2.02280        2.75433       -1.67789
C          0.62728       -3.26890       -0.47268
C          1.72178       -2.36109       -0.64520
H         -3.26176        3.90090       -0.51059
H         -1.63793        3.67031       -1.18681
H         -1.83886        4.57006        0.32242
H         -2.45303        2.59040        1.40091
H         -2.11693        1.31731       -1.20916
H         -3.59411        1.28299       -0.21717
H         -1.71401        0.75848        2.83249
H         -3.41392        0.37338        2.42317
H         -2.27717       -0.91471        2.89451
H         -3.21759       -1.42969       -1.02703
H         -3.14863       -2.32632        0.53231
H         -0.56375       -2.52085        0.16020
H          0.59923       -1.34806        1.53061
H          5.14600       -0.41949        2.55658
H          5.53335        0.82302        1.35719
H          5.34444       -0.86564        0.84461
H          3.00509       -0.62710        1.60907
H          3.65938        1.59637       -0.16324
H          3.58256       -0.08379       -0.76260
H          0.05847        2.37954        1.10253
H          1.73975        2.95472        0.85391
H          1.39112        1.74497        2.11375
H          1.52116        0.99797       -2.50309
H          0.18745        1.97001       -1.81445
H          0.72063       -4.03302        0.29403
H          0.12287       -3.61348       -1.37125
H          1.98395       -2.10091       -1.66796
H          2.58431       -2.49918        0.00195
