44
2378.log
C          4.00017        1.18273       -1.34344
C          2.57796        0.71018       -1.60972
P          1.68022       -0.08673       -0.19576
Cl         2.96101       -1.54335        0.23124
C          2.13517        1.13987        1.16612
O          1.42770        1.06499        2.35723
C          1.65094       -0.12064        3.09796
Rh        -0.39097       -0.91000       -0.78061
Cl        -0.41080       -2.18212        1.23938
C         -2.38666        0.23672        2.70589
C         -1.72453        1.28975        1.82699
P         -1.66115        0.78278        0.05511
Cl        -3.59812        0.73179       -0.36468
C         -1.30726        2.42726       -0.73113
O          0.06490        2.66582       -0.57920
C          0.47396        3.86775       -1.19053
C         -0.94665       -2.82518       -1.80578
C         -2.06371       -2.01897       -1.42663
H          4.46642        1.47548       -2.28256
H          4.59662        0.38532       -0.90497
H          4.01851        2.04155       -0.67758
H          1.94823        1.53400       -1.94425
H          2.57882       -0.04446       -2.40234
H          3.21725        1.01392        1.34346
H          1.92902        2.13142        0.75796
H          1.21021       -0.98837        2.59780
H          1.16172        0.02511        4.05894
H          2.72287       -0.28760        3.25128
H          0.35471       -2.08389       -1.42996
H         -0.34867       -0.16458       -2.10385
H         -3.42525        0.08507        2.41560
H         -2.36158        0.55201        3.74681
H         -1.86120       -0.71171        2.62036
H         -0.69083        1.45245        2.14000
H         -2.27094        2.23807        1.88036
H         -1.90701        3.22226       -0.25696
H         -1.58316        2.37274       -1.79693
H          0.28050        3.84718       -2.26987
H          1.54336        3.97139       -1.01476
H         -0.04954        4.72724       -0.75561
H         -0.73422       -2.93434       -2.86552
H         -0.76135       -3.72586       -1.22712
H         -2.66436       -2.36236       -0.58808
H         -2.64501       -1.55368       -2.21855
