48
244.log
C          2.15436        1.02736       -2.66182
C          2.45943        0.11660       -1.47897
P          1.74004        0.78222        0.08531
C          2.91152        2.16259        0.39862
C          2.43024       -0.41565        1.34408
O          3.69154       -0.95556        0.96574
C          3.71174       -2.22381        0.59982
O          2.78578       -2.98147        0.58167
Rh        -0.45774        1.28101        0.51394
Cl        -1.21750        1.08637       -1.75555
C         -3.69110       -2.41169        0.48934
C         -3.10038       -1.00727        0.49744
P         -1.28980       -0.83920        0.82760
C         -1.16453       -1.64236        2.47669
C         -0.50597       -2.19174       -0.18904
O         -0.06778       -1.70181       -1.44461
C         -1.01220       -1.53341       -2.37202
O         -2.14945       -1.89484       -2.27661
C         -1.49909        3.26034        0.58211
C         -2.32981        2.16868        0.97250
H          1.08154        1.18924       -2.74341
H          2.50604        0.57117       -3.58503
H          2.64268        1.99386       -2.55238
H          3.54072        0.02073       -1.33488
H          2.03227       -0.87241       -1.65241
H          2.69878        2.58935        1.37755
H          3.93856        1.79982        0.36655
H          2.77062        2.93621       -0.35423
H          1.71895       -1.23057        1.50477
H          2.56935        0.13361        2.27975
H          4.74184       -2.49502        0.31586
H         -0.05134        2.72935        0.22879
H         -0.05103        1.39781        1.97333
H         -4.77676       -2.33492        0.48734
H         -3.39672       -2.98867        1.36321
H         -3.40074       -2.94168       -0.41303
H         -3.29118       -0.53226       -0.46809
H         -3.57795       -0.40137        1.27582
H         -0.15191       -1.54617        2.86072
H         -1.42744       -2.69694        2.41898
H         -1.83986       -1.13120        3.15992
H          0.39258       -2.56444        0.31178
H         -1.21966       -3.01161       -0.33160
H         -0.55144       -1.12967       -3.28373
H         -1.19263        3.96925        1.34570
H         -1.69441        3.71260       -0.38583
H         -3.11251        1.88011        0.27817
H         -2.62198        2.10641        2.01778
