40
248.log
C         -3.77770       -1.61284        1.40435
C         -3.55616       -0.56802        0.31947
N         -3.73592       -1.15494       -0.97794
P         -1.84094        0.21897        0.54597
C         -2.05269        1.10841        2.14099
Br        -2.18848        1.90850       -0.81534
Rh        -0.06874       -1.19418        0.23395
Cl        -0.01361       -0.60814       -2.07937
C          2.67605        2.80196       -0.50557
C          1.40904        2.01128       -0.20598
N          0.52610        2.64359        0.76850
P          1.61805        0.30732        0.54568
C          2.14966        0.69724        2.26133
Br         3.59907       -0.26606       -0.22313
C          0.01781       -3.36735       -0.37816
C          1.29089       -2.77438       -0.14674
H         -3.88535       -1.14492        2.37983
H         -2.94064       -2.31166        1.44159
H         -4.68307       -2.17179        1.17936
H         -4.29411        0.24103        0.42484
H         -3.65360       -0.46847       -1.72201
H         -3.05817       -1.89234       -1.15264
H         -1.27220        1.86458        2.22266
H         -1.94277        0.39211        2.95259
H         -3.03317        1.58311        2.18946
H         -1.08057       -2.30676       -0.07186
H         -0.09093       -1.55172        1.71923
H          2.39751        3.81570       -0.79369
H          3.23032        2.35981       -1.32960
H          3.33095        2.85871        0.36470
H          0.84629        1.85917       -1.13540
H         -0.04156        3.35970        0.32501
H          1.08122        3.09746        1.48895
H          1.28924        1.04150        2.83079
H          2.51838       -0.22439        2.71243
H          2.94376        1.44383        2.28091
H         -0.33474       -4.11892        0.32237
H         -0.26543       -3.55849       -1.40939
H          1.90480       -2.56503       -1.01936
H          1.85835       -3.10396        0.72055
