46
252.log
C          3.16844       -1.15992       -2.18214
C          3.23282       -1.13991       -0.66074
P          1.72845       -0.39146        0.09691
C          2.05511       -0.59942        1.90322
C          3.25374        0.16800        2.34726
O          3.94209        0.83237        1.62402
C          2.01309        1.42829       -0.01674
O          1.48861        2.18946        0.75910
O          2.69290        1.77201       -1.08427
Rh        -0.35837       -0.97866       -0.62553
Cl        -0.54595       -2.33067        1.34442
C         -1.84751        0.36433        3.02535
C         -1.38829        1.40641        2.01445
P         -1.44667        0.85726        0.24403
C         -1.20154        2.53891       -0.52082
C         -0.62990        2.45872       -1.89511
O          0.44957        2.88366       -2.20986
C         -3.30276        0.80713        0.07317
O         -3.96721        1.62687       -0.50310
O         -3.79883       -0.24661        0.69632
C         -1.10298       -2.76311       -1.76144
C         -2.13599       -1.85924       -1.37135
H          4.05148       -1.64945       -2.58749
H          2.28553       -1.69984       -2.52295
H          3.11988       -0.14686       -2.57184
H          4.10686       -0.57974       -0.32234
H          3.29228       -2.16281       -0.27098
H          1.17422       -0.26942        2.46429
H          2.16194       -1.66571        2.12662
H          3.47019        0.08933        3.42956
H          2.64343        2.73070       -1.25635
H          0.25186       -2.22377       -1.27071
H         -0.16431       -0.20113       -1.91446
H         -2.92461        0.22433        2.98283
H         -1.38088       -0.59919        2.83113
H         -1.58456        0.68543        4.03160
H         -0.34224        1.67873        2.18585
H         -1.99326        2.31707        2.09028
H         -2.19439        2.99673       -0.57649
H         -0.53412        3.11401        0.12383
H         -1.29631        1.98420       -2.63828
H         -4.76892       -0.29464        0.62565
H         -0.86007       -2.83440       -2.81817
H         -1.04886       -3.71142       -1.23390
H         -2.78866       -2.17844       -0.56410
H         -2.63782       -1.29276       -2.15232
