46
258.log
C         -0.89059       -2.92378       -0.80279
C         -1.31808       -2.27826        0.50742
P         -1.60708       -0.46007        0.29966
Br        -3.43986       -0.65678       -0.92236
N         -2.37278       -0.11100        1.76523
C         -1.63518       -0.36783        2.99631
C         -3.03138        1.18797        1.82756
Rh        -0.13418        0.99402       -0.71030
Cl         0.22931        2.08168        1.39772
C          3.51478        1.79460        1.09188
C          3.43500        0.87152       -0.11352
P          1.85288       -0.08992       -0.34518
Br         1.92045       -1.20141        1.56113
N          2.34218       -1.33837       -1.37898
C          3.55953       -2.10018       -1.16423
C          2.00637       -1.28025       -2.78842
C         -0.50174        3.01296       -1.61818
C          0.85926        2.59517       -1.69828
H          0.02530       -2.46023       -1.16870
H         -1.65885       -2.82156       -1.56815
H         -0.69977       -3.98400       -0.64939
H         -0.54396       -2.44525        1.25721
H         -2.25738       -2.70511        0.87508
H         -2.35493       -0.39117        3.81596
H         -1.12680       -1.32730        2.95248
H         -0.89640        0.41140        3.20106
H         -3.72495        1.17679        2.66933
H         -3.60423        1.36856        0.91695
H         -2.31915        2.00587        1.97338
H         -1.34838        1.90104       -0.94085
H         -0.42157        0.31811       -2.03382
H          3.42142        1.23206        2.01993
H          4.47705        2.30473        1.09821
H          2.72764        2.54360        1.07667
H          3.55749        1.44130       -1.04239
H          4.24612        0.13626       -0.06121
H          4.41921       -1.66252       -1.68439
H          3.40425       -3.10763       -1.55757
H          3.78839       -2.18872       -0.10390
H          2.81603       -0.83691       -3.37831
H          1.82621       -2.29292       -3.15716
H          1.10345       -0.68940       -2.93176
H         -1.07887        3.05884       -2.53688
H         -0.74291        3.79845       -0.90749
H          1.56892        3.10839       -1.05583
H          1.25503        2.34840       -2.68063
