42
259.log
C          5.20687        1.71216       -0.46425
C          4.05133        1.16260        0.36327
C          2.93096        0.65650       -0.54148
P          1.59586       -0.23385        0.34963
N          1.28238        0.73277        1.67146
C          2.60966       -1.56336        1.00090
N          3.22960       -2.42214        1.43879
Rh        -0.30034       -0.95725       -0.66096
Cl        -1.01712       -1.38718        1.59537
C         -4.51006        1.48246        1.90644
C         -3.56460        0.88020        0.87567
C         -2.29592        1.71458        0.73328
P         -1.23719        1.09730       -0.64422
N         -2.04750        1.57796       -2.02462
C         -0.05276        2.43872       -0.54628
N          0.70564        3.29664       -0.50064
C         -1.06391       -2.97797       -1.21447
C         -2.01307       -1.92483       -1.42475
H          5.62845        0.93490       -1.09779
H          5.99283        2.08899        0.18567
H          4.86290        2.52610       -1.09814
H          4.41362        0.34737        0.99743
H          3.66630        1.95771        1.00469
H          3.32222       -0.05151       -1.28025
H          2.47207        1.48664       -1.08398
H          0.48254        0.36569        2.18929
H          2.06800        0.92509        2.28434
H          0.26335       -2.38682       -0.72423
H          0.22373       -0.69802       -2.06410
H         -4.02705        1.52954        2.87946
H         -4.80584        2.49039        1.61958
H         -5.40669        0.87454        1.99899
H         -4.07436        0.81025       -0.09151
H         -3.28439       -0.12793        1.18562
H         -1.71253        1.67691        1.65587
H         -2.53330        2.76345        0.51470
H         -2.77226        2.27764       -1.92459
H         -2.29714        0.84156       -2.66761
H         -0.66180       -3.47887       -2.09056
H         -1.23996       -3.64772       -0.37682
H         -2.86055       -1.88494       -0.74467
H         -2.27601       -1.69732       -2.45579
