40
272.log
C         -4.55917       -0.82923       -0.16660
C         -3.13304       -0.71748       -0.64997
N         -2.48233       -1.98621       -0.78906
O         -3.08076       -3.01461       -0.60012
O         -1.27663       -1.92267       -1.01135
P         -1.83069        0.11415        0.48532
C         -1.86050       -1.05215        1.89716
F         -2.89109        1.15993        1.12970
Rh        -0.13958        1.30598       -0.45938
Cl         0.17732        1.44616        1.91185
C          1.36234       -2.51389        0.91408
C          2.08551       -1.18045        0.84495
N          3.53238       -1.35609        0.71680
O          4.23896       -0.60537        1.33831
O          3.92191       -2.22128       -0.03533
P          1.53772       -0.21995       -0.67714
C          1.65636       -1.45277       -2.00552
F          2.96203        0.50109       -0.97491
C          0.00815        3.54608       -0.65061
C          1.23072        2.85943       -0.89529
H         -5.17840       -1.30017       -0.92812
H         -4.95440        0.16151        0.04243
H         -4.62083       -1.43373        0.73533
H         -3.06370       -0.18479       -1.60273
H         -2.86673       -1.02911        2.31482
H         -1.15886       -0.68785        2.64406
H         -1.59113       -2.06436        1.61293
H         -1.11628        2.48568       -0.41244
H         -0.49495        1.13010       -1.92318
H          1.91638       -3.25699        0.34287
H          0.37031       -2.42776        0.47815
H          1.27627       -2.85567        1.94344
H          1.90383       -0.54084        1.71570
H          1.67800       -0.90209       -2.94391
H          2.57345       -2.03096       -1.89934
H          0.78198       -2.09317       -1.99079
H         -0.47743        4.03998       -1.48661
H         -0.09550        4.07328        0.29358
H          1.99963        2.90429       -0.12848
H          1.62060        2.84732       -1.90836
