42
281.log
C          5.20178       -0.33392       -1.16613
C          4.23925        0.38208       -0.26373
O          4.53574        1.21883        0.54120
O          2.97981       -0.04714       -0.47688
P          1.58379        0.36828        0.33949
C          2.06469        0.20635        2.09631
C          1.66561        2.22800        0.17525
F          0.93909        2.79025        1.19125
Rh        -0.04872       -0.95272       -0.55453
Cl        -0.25024       -2.07267        1.55866
C         -3.17955        2.79417       -2.13392
C         -2.26789        2.07556       -1.18695
O         -1.11836        2.35146       -0.96714
O         -2.85787        1.04163       -0.58114
P         -1.85624        0.08726        0.35496
C         -1.74701        1.07467        1.88715
C         -3.25929       -1.02775        0.83246
F         -4.27822       -0.27233        1.35454
C          0.08740       -2.89441       -1.63149
C         -1.25474       -2.43900       -1.45447
H          6.19188        0.10091       -1.06947
H          5.23244       -1.38512       -0.88719
H          4.85460       -0.26862       -2.19401
H          2.19355       -0.84954        2.32847
H          1.25517        0.59940        2.70657
H          2.98082        0.76097        2.29040
H          1.22308        2.55702       -0.76771
H          2.69544        2.58071        0.28669
H          1.09854       -1.82694       -1.05121
H         -0.01279       -0.17900       -1.85507
H         -4.15390        2.93201       -1.67283
H         -3.30863        2.18172       -3.02459
H         -2.74746        3.75013       -2.41308
H         -2.74824        1.40115        2.16789
H         -1.10239        1.93622        1.73441
H         -1.33120        0.43451        2.66251
H         -2.93588       -1.73581        1.59851
H         -3.66243       -1.54920       -0.04072
H          0.49561       -2.90402       -2.63770
H          0.41347       -3.72932       -1.01774
H         -1.85843       -2.98178       -0.73285
H         -1.80402       -2.12489       -2.33823
