42
289.log
C         -3.15184       -1.99996       -0.46811
P         -2.05181       -0.62626        0.03577
C         -2.59996        0.65101       -1.18885
Cl        -4.36053        0.87571       -1.21986
C         -2.94647       -0.07739        1.56329
C         -2.10680        0.97767        2.20474
O         -1.36390        1.69763        1.58292
O         -2.24560        1.04655        3.52387
Rh         0.14401       -1.20918        0.15571
Cl         0.08666       -1.10252       -2.25325
C          2.04461        1.56366        1.48344
P          1.30486        0.75849        0.03766
C          0.49790        2.18134       -0.83822
Cl         1.56666        3.58037       -1.08897
C          2.76720        0.66256       -1.15847
C          3.97312        0.02969       -0.74347
O          4.65716       -0.43111        0.06728
O          4.13706       -0.59010        1.77317
C          1.03178       -3.28644        0.18278
C          1.99804       -2.24509        0.11451
H         -2.80848       -2.36893       -1.43467
H         -3.07557       -2.80411        0.26336
H         -4.18596       -1.66806       -0.54763
H         -2.28110        0.32136       -2.18021
H         -2.15721        1.61640       -0.95218
H         -3.92178        0.33507        1.28874
H         -3.09298       -0.91529        2.24662
H         -1.66299        1.72317        3.90561
H         -0.38990       -2.64649        0.18879
H          0.14397       -1.18712        1.66706
H          1.25988        1.74816        2.21217
H          2.52844        2.49816        1.20371
H          2.77485        0.86709        1.90419
H          0.15071        1.85066       -1.81854
H         -0.33021        2.52659       -0.22262
H          3.02730        1.69180       -1.43869
H          2.37582        0.16650       -2.05814
H          4.91980       -0.95925        2.18269
H          0.93807       -3.83968        1.11228
H          0.88368       -3.89284       -0.70681
H          2.50797       -2.12847       -0.83881
H          2.61897       -2.04165        0.98245
