50
296.log
C         -3.27544       -2.61699        0.57145
C         -2.53942       -1.28502        0.64204
N         -3.49612       -0.19909        0.77277
N         -4.11221       -0.24849        2.06094
P         -1.52323       -0.83622       -0.85204
C         -2.82707       -0.61594       -2.12243
C         -0.85904       -2.45844       -1.40338
Rh        -0.09126        0.95346       -0.65968
Cl        -0.93212        1.55626        1.51644
C          2.73287       -1.77666       -1.35141
C          3.09102       -0.72902       -0.30651
N          4.00701       -1.19115        0.71990
N          5.36838       -1.31605        0.19102
P          1.60526        0.01082        0.55637
C          2.47851        1.15616        1.68561
C          1.13649       -1.27564        1.77503
C         -0.37447        3.07223       -1.31138
C          0.90887        2.81776       -0.73217
H         -3.95082       -2.66123        1.42262
H         -3.87229       -2.68586       -0.33344
H         -2.58519       -3.45465        0.62429
H         -1.84719       -1.31078        1.50612
H         -2.97426        0.68179        0.66521
H         -3.47090        0.09552        2.78149
H         -4.91718        0.37098        2.03858
H         -2.34571       -0.37216       -3.06901
H         -3.47996        0.20184       -1.82421
H         -3.41565       -1.52432       -2.23521
H         -0.18861       -2.87227       -0.65421
H         -1.67124       -3.15603       -1.59702
H         -0.29699       -2.29270       -2.32052
H         -1.20051        1.76297       -1.34911
H          0.49870        0.58042       -2.00265
H          3.63133       -2.09745       -1.87561
H          2.27760       -2.64595       -0.87924
H          2.03019       -1.35463       -2.06591
H          3.56179        0.12807       -0.80837
H          3.74721       -2.14387        0.97605
H          5.95476       -1.54783        0.99215
H          5.64373       -0.37961       -0.10487
H          3.19797        0.59373        2.27780
H          1.74098        1.62564        2.33481
H          2.99428        1.92357        1.11114
H          0.36508       -0.83888        2.40904
H          1.99649       -1.54512        2.38504
H          0.72867       -2.15547        1.28110
H         -0.41911        3.28756       -2.37527
H         -1.07717        3.65569       -0.72225
H          1.08968        3.24572        0.24944
H          1.77329        2.85715       -1.39030
