46
297.log
C          3.78334        1.87956        2.14457
N          2.62088        1.52470        1.37205
C          2.73058        1.33500        0.04509
Br         4.06983       -0.32377       -0.48231
P          1.15130        0.88704       -0.79391
C          0.32651        2.50041       -0.53003
C          1.67270        1.03443       -2.54155
Rh         0.19619       -1.05766       -0.05232
Cl        -0.00495        0.04729        2.08094
C         -3.30811       -0.66332        2.11819
N         -4.08206       -0.65338        0.89647
C         -3.52346       -0.05540       -0.20853
Br        -3.11088        1.97946        0.06144
P         -1.95359       -0.82468       -0.87648
C         -2.00511       -0.03123       -2.53111
C         -2.75629       -2.42385       -1.30234
C          1.09363       -2.78792        1.05681
C         -0.29791       -2.94112        0.85025
H          4.26876        2.74891        1.69716
H          3.47530        2.12161        3.15839
H          4.50899        1.05732        2.17401
H          1.93374        0.93012        1.84858
H          3.29220        2.11783       -0.47091
H          1.03206        3.30932       -0.72102
H         -0.52951        2.60090       -1.19285
H         -0.02195        2.55273        0.50041
H          2.30028        0.18563       -2.80682
H          2.22098        1.96395       -2.69573
H          0.78902        1.02601       -3.17697
H          1.60735       -1.39735        0.35575
H          0.45375       -1.73915       -1.37956
H         -3.20187        0.33955        2.54826
H         -3.79025       -1.31587        2.84337
H         -2.31254       -1.04188        1.89603
H         -5.03902       -0.36185        1.06921
H         -4.24608       -0.00695       -1.02786
H         -1.73110        1.02006       -2.45829
H         -1.27379       -0.54077       -3.15699
H         -2.99360       -0.11840       -2.98246
H         -3.66354       -2.25240       -1.88115
H         -3.00987       -2.96231       -0.39096
H         -2.05784       -3.01886       -1.88707
H          1.77726       -3.41791        0.49679
H          1.43872       -2.53306        2.05454
H         -0.94618       -2.83747        1.71611
H         -0.62180       -3.70215        0.14686
