38
31.log
C         -0.88111        4.18298        0.12880
C         -1.02112        2.72625       -0.29079
C         -1.79690        1.93118        0.75183
P         -1.91159        0.13090        0.35675
Cl        -3.20611       -0.43408        1.75237
C         -3.04542        0.25850       -1.01149
N         -3.80615        0.31556       -1.86474
Rh        -0.20198       -1.26738       -0.15910
Cl        -0.26261        0.05892       -2.15025
C          3.85766        2.20986       -1.89467
C          2.65477        1.72794       -1.09359
C          3.00762        0.48124       -0.28879
P          1.59368       -0.19336        0.69472
Cl         1.34754        1.20518        2.07301
C          2.59491       -1.31373        1.65838
N          3.23601       -2.04006        2.26774
C         -0.20324       -3.12382       -1.42475
C          1.10234       -2.67357       -1.06316
H         -0.34615        4.25986        1.07353
H         -0.33080        4.73946       -0.62531
H         -1.85923        4.64365        0.24852
H         -1.53219        2.66234       -1.25387
H         -0.03063        2.28449       -0.41872
H         -1.32229        2.01606        1.73529
H         -2.82652        2.29927        0.83516
H         -1.25819       -2.20056       -0.77589
H         -0.28695       -2.07718        1.12632
H          3.59870        3.10275       -2.45740
H          4.69095        2.44737       -1.23593
H          4.18081        1.44539       -2.59749
H          1.83222        1.49828       -1.77388
H          2.33281        2.52209       -0.41458
H          3.82455        0.69126        0.41194
H          3.32637       -0.32166       -0.96012
H         -0.56047       -4.05090       -0.98655
H         -0.51606       -2.97281       -2.45446
H          1.69888       -2.21735       -1.84969
H          1.67587       -3.28253       -0.36843
