40
310.log
C         -1.27557       -1.56947        2.20015
P         -1.31819       -0.90771        0.47401
C         -2.56717       -1.89849       -0.51356
O         -3.84695       -1.37750       -0.69165
C         -2.73135        0.37673        1.12404
C         -3.17694        1.23660        0.09584
N         -3.47970        1.91195       -0.78631
Rh         0.14955        0.72333       -0.45113
Cl         0.64196        1.53519        1.79640
C          2.89897       -0.90940       -2.16177
P          1.71693       -0.88775       -0.76241
C          0.68425       -2.41142       -0.96729
O         -0.16821       -2.39764        0.10009
C          2.80514       -1.54018        0.62309
C          3.24897       -0.40575        1.35181
N          3.46852        0.57589        1.90603
C         -0.03689        2.86506       -1.06334
C          1.28005        2.34052       -1.26121
H         -0.60356       -2.41666        2.27634
H         -2.28466       -1.88273        2.46126
H         -0.96301       -0.78704        2.89016
H         -2.67928       -2.83812        0.03717
H         -2.09432       -2.13189       -1.47822
H         -3.79233       -0.55884       -1.20113
H         -2.30896        0.97519        1.93628
H         -3.57925       -0.19819        1.50320
H         -0.94701        1.78670       -0.50362
H         -0.36229        0.28511       -1.78977
H          3.31936       -1.90750       -2.28821
H          3.69723       -0.18895       -1.98829
H          2.35840       -0.62441       -3.06295
H          0.17927       -2.37006       -1.94756
H          1.31656       -3.31401       -0.93339
H          1.89289        1.45344        2.11439
H          3.63034       -2.14009        0.23411
H          2.15187       -2.14417        1.26360
H         -0.63360        3.08250       -1.94307
H         -0.17763        3.59719       -0.27231
H          2.07129        2.70022       -0.60712
H          1.60711        2.18730       -2.28507
