46
311.log
C          1.72531        2.60302       -2.27236
C          1.50351        2.78253       -0.77993
P          1.24332        1.16945        0.06825
C          3.05570        0.61231        0.12164
O          3.24511       -0.68362       -0.39339
O          1.13696        1.76691        1.55385
C          1.02656        0.96371        2.72970
Rh        -0.08662       -0.51689       -0.73345
Cl         0.84255       -1.91105        1.01077
C          1.89266       -3.28133        0.59953
C         -1.76053       -0.65294        2.34914
P         -1.84734       -0.01189        0.76866
C         -1.90976        1.83626        1.08644
O         -1.30602        2.58935        0.06096
O         -3.39650       -0.11138        0.06544
C         -3.84288        0.53631       -1.10211
C         -0.43095       -2.26620       -2.01170
C         -1.50821       -2.12790       -1.14090
H          2.58492        1.96464       -2.46891
H          1.89284        3.56590       -2.75079
H          0.85409        2.13502       -2.72522
H          0.62895        3.39962       -0.58662
H          2.36725        3.25087       -0.29928
H          3.64558        1.34178       -0.44774
H          3.38041        0.65875        1.17256
H          4.19022       -0.84074       -0.50175
H          1.90162        0.32045        2.85304
H          0.10418        0.34399        2.70344
H          0.97603        1.66554        3.56150
H          1.10086       -0.67036       -1.67845
H         -0.68923        0.36527       -1.77685
H          1.27068       -4.13141        0.33431
H          2.49597       -3.51577        1.47085
H          2.52158       -2.98028       -0.23196
H         -2.55938       -0.26064        2.97950
H         -1.72789       -1.74034        2.38191
H         -1.37285        2.06517        2.00572
H         -2.96369        2.12902        1.21743
H         -1.68396        2.29211       -0.77774
H         -3.08928        0.49810       -1.89969
H         -4.09653        1.58353       -0.90442
H         -4.74365        0.01660       -1.43827
H         -0.55470       -1.99819       -3.05590
H          0.31459       -3.03628       -1.83826
H         -1.59990       -2.78159       -0.27804
H         -2.45882       -1.78077       -1.52375
