44
320.log
C          0.09285        3.07090        2.72211
O         -0.33762        3.01869        1.38465
O          0.53394        2.08686        0.68119
C          0.75134        2.23212       -0.59294
O          0.37340        3.05901       -1.36622
P          1.93478        0.81612       -0.95024
C          3.43531        1.63221       -0.27716
C          2.11232        1.11145       -2.74430
Rh         1.39783       -1.24928       -0.14455
Cl         1.51278       -0.36242        2.07392
C         -2.24489        1.04932       -1.58689
O         -1.00886        0.42131       -1.27103
O         -7.38131       -0.20940        0.21614
C         -6.25485       -0.29591        0.05330
O         -5.12454       -0.38424       -0.11014
P         -0.81881       -0.82171       -0.24612
C         -1.96432       -2.10161       -0.90827
C         -1.74112       -0.33753        1.26544
C          2.60963       -2.95369        0.60440
C          1.18704       -3.16372        0.67778
H          0.29458        2.06486        3.10035
H          0.98909        3.68922        2.82898
H         -0.73926        3.51866        3.26354
H          3.38949        1.58376        0.81096
H          4.31139        1.08116       -0.62021
H          3.49734        2.66914       -0.60864
H          2.25170        2.17398       -2.93900
H          2.96161        0.53908       -3.11328
H          1.20672        0.76431       -3.23788
H          2.89263       -1.62023       -0.03022
H          1.34831       -1.82734       -1.54720
H         -2.77759        0.48342       -2.35365
H         -1.98755        2.03665       -1.97343
H         -2.87938        1.16281       -0.70797
H         -2.97686       -1.70624       -0.97281
H         -1.95202       -2.96206       -0.24492
H         -1.61977       -2.40789       -1.89328
H         -1.47556       -1.03295        2.05771
H         -1.42894        0.65826        1.56867
H         -2.81636       -0.36610        1.09562
H          3.17117       -3.57056       -0.09206
H          3.12734       -2.78611        1.54519
H          0.74723       -3.15620        1.67247
H          0.76557       -3.92666        0.02705
