50
333.log
C          3.43940        3.19428        0.02289
C          2.25607        2.35010        0.49057
N          2.58304        0.92866        0.41637
N          2.81451        0.38644        1.71536
P          1.77953       -0.09211       -0.69078
C          2.13246        0.81198       -2.24844
C          3.09174       -1.37720       -0.78747
Rh        -0.27524       -1.11258       -0.49946
Cl         0.56292       -2.04705        1.55454
C         -3.99993        2.79394       -1.10374
C         -3.23412        1.50179       -0.83708
N         -2.16514        1.71694        0.12785
N         -1.06739        2.45713       -0.39450
P         -1.45368        0.31982        0.82818
C         -2.89552       -0.36600        1.73440
C         -0.64160        1.12814        2.24726
C         -0.81387       -3.17377       -1.19675
C         -1.87007       -2.51627       -0.49593
H          4.32026        2.94724        0.60884
H          3.65812        3.01344       -1.02532
H          3.21544        4.24988        0.15555
H          2.05201        2.59623        1.53593
H          1.36381        2.57272       -0.10131
H          3.63453       -0.21383        1.67557
H          2.03076       -0.19725        2.01766
H          1.83266        0.17340       -3.07759
H          3.19628        1.02983       -2.31248
H          1.56221        1.73570       -2.29860
H          2.98657       -2.07088        0.04581
H          4.07240       -0.90236       -0.76186
H          2.97108       -1.93111       -1.71791
H          0.40224       -2.19638       -1.35034
H         -0.79476       -0.47314       -1.77462
H         -4.86769        2.58711       -1.72430
H         -3.38019        3.52308       -1.62207
H         -4.33402        3.22657       -0.16389
H         -3.91148        0.76171       -0.40918
H         -2.83734        1.09703       -1.78240
H         -1.34097        3.43220       -0.48846
H         -0.80650        2.09828       -1.31909
H         -2.50588       -1.05487        2.48254
H         -3.57548       -0.90918        1.08311
H         -3.41976        0.45332        2.22466
H         -0.24598        0.35289        2.90038
H          0.16789        1.76089        1.90322
H         -1.38120        1.72837        2.77409
H         -0.94501       -3.36047       -2.25879
H         -0.29008       -3.97140       -0.67749
H         -2.09280       -2.87990        0.50299
H         -2.75140       -2.23525       -1.06711
