40
344.log
C          4.80453        1.06058       -0.92071
O          3.88129        0.28617       -0.19225
C          2.81190       -0.18453       -0.96820
P          1.50724       -0.71290        0.23254
C          2.46845       -1.74450        1.38842
C          1.44891        0.79991        1.15565
N          1.32678        1.78722        1.72489
Rh        -0.58584       -1.31650       -0.40736
Cl        -0.84731       -1.17669        1.97480
C         -1.31943        3.96371        1.02974
O         -2.30077        3.01474        0.66814
C         -1.94323        1.69136        0.93862
P         -1.33495        0.81368       -0.58971
C         -2.66211        1.27089       -1.76352
C         -0.08758        1.91878       -1.19717
N          0.76580        2.52545       -1.66720
C         -1.65078       -3.28214       -0.40290
C         -2.50184       -2.15687       -0.66487
H          5.27008        0.47022       -1.71865
H          4.31811        1.93796       -1.36068
H          5.56463        1.38119       -0.21127
H          2.39943        0.60303       -1.61754
H          3.10431       -1.03622       -1.60413
H          2.73405       -2.67617        0.88629
H          3.36761       -1.20689        1.68741
H          1.84252       -1.96185        2.25408
H         -0.22342       -2.81178       -0.28318
H         -0.30367       -1.37423       -1.90183
H         -1.14055        3.94437        2.10934
H         -0.37232        3.78375        0.51351
H         -1.71601        4.93485        0.73960
H         -1.20256        1.60761        1.74161
H         -2.84511        1.14098        1.24099
H         -2.87729        2.33543       -1.66676
H         -3.55383        0.69126       -1.52491
H         -2.34062        1.03603       -2.77735
H         -1.49221       -3.99022       -1.21139
H         -1.73991       -3.75004        0.57404
H         -3.18743       -1.86798        0.12865
H         -2.92808       -2.07592       -1.66165
