40
346.log
C          3.37647        1.87535        1.62673
C          2.03549        1.16343        1.51733
P          1.73826        0.22311       -0.04805
Cl         2.07341        1.63902       -1.40946
C          3.33178       -0.75291       -0.23969
N          3.43565       -1.47605       -1.47880
Rh        -0.17112       -1.01407       -0.25106
Cl        -0.04210       -1.33805        2.11156
C         -1.55691        1.69677        2.61572
C         -2.49524        1.02409        1.62611
P         -1.72136        0.64496       -0.01169
Cl        -3.38691        0.30314       -1.04005
C         -1.36282        2.37630       -0.66187
N         -1.21134        2.45929       -2.08697
C         -0.48832       -3.23914       -0.40544
C         -1.69474       -2.48027       -0.32960
H          3.56900        2.49276        0.75111
H          4.19254        1.16762        1.74545
H          3.36626        2.52291        2.50132
H          1.90768        0.43923        2.32469
H          1.21615        1.88560        1.59263
H          3.37345       -1.45932        0.59608
H          4.17686       -0.06198       -0.17116
H          2.66169       -2.12699       -1.58763
H          3.41669       -0.83776       -2.26873
H          0.70452       -2.26911       -0.40277
H         -0.21083       -0.83389       -1.76326
H         -0.72536        1.03478        2.84346
H         -2.08971        1.90250        3.54200
H         -1.17601        2.63809        2.22370
H         -2.83583        0.06928        2.03736
H         -3.37183        1.65052        1.42809
H         -2.19479        3.02116       -0.35497
H         -0.44316        2.73547       -0.19044
H         -2.03979        2.10797       -2.55748
H         -0.41550        1.91288       -2.40090
H         -0.26023       -3.73738       -1.34357
H         -0.19841       -3.80644        0.47445
H         -2.25440       -2.53020        0.60089
H         -2.32139       -2.43993       -1.21679
