40
351.log
C         -1.95729        1.91737       -2.31624
C         -2.79525        0.97005       -1.47090
P         -1.93758        0.40274        0.05216
C         -3.38047       -0.32081        0.84181
N         -4.27610       -0.80295        1.36834
O         -1.87899        1.84152        0.78866
C         -1.32155        1.99068        2.08420
Rh        -0.19013       -1.04319        0.16625
Cl         0.33109       -0.70140       -2.14330
C          2.63842        2.92957       -0.49315
C          1.35767        2.11154       -0.59553
P          1.49128        0.46888        0.21457
C          2.93252       -0.14742       -0.65363
N          3.87254       -0.57461       -1.14925
O          2.18155        0.98376        1.59478
C          2.48717        0.07644        2.63886
C         -0.08497       -3.26298       -0.12523
C          1.17129       -2.66996        0.20705
H         -1.66843        2.79243       -1.73824
H         -1.06336        1.41088       -2.67162
H         -2.53186        2.24661       -3.17952
H         -3.04459        0.06950       -2.03885
H         -3.72216        1.45369       -1.14575
H         -0.34625        1.49851        2.15169
H         -1.98643        1.56986        2.84168
H         -1.20751        3.06161        2.25275
H         -1.21015       -2.16939       -0.08980
H         -0.40635       -1.18476        1.66691
H          3.47314        2.39446       -0.94178
H          2.88169        3.14110        0.54495
H          2.51218        3.87365       -1.01967
H          1.10770        1.91561       -1.64059
H          0.51870        2.64232       -0.13666
H          1.65355       -0.61181        2.81619
H          3.38356       -0.50029        2.40013
H          2.66569        0.67538        3.53180
H         -0.54768       -3.91959        0.60550
H         -0.23069       -3.57961       -1.15415
H          1.91306       -2.60577       -0.58475
H          1.59727       -2.90747        1.17909
