40
352.log
C          2.06641       -0.20992        2.48431
C          1.64268        0.82350        1.50123
O          1.35790        1.96360        1.76406
P          1.41945        0.28585       -0.28157
C          1.81708        1.84799       -1.12529
C          2.92984       -0.74182       -0.55983
Br         4.58611        0.13964       -0.02521
Rh        -0.45572       -0.89170       -0.87362
Cl         0.12848       -2.47019        0.84792
C         -3.08080       -2.12070        2.04017
C         -3.38832       -1.11468        0.98703
O         -4.43975       -1.00610        0.40555
P         -1.99920        0.04562        0.51147
C         -1.59077        0.74311        2.15389
C         -3.06689        1.37440       -0.18205
Br        -1.94650        2.89782       -0.55195
C         -0.70372       -2.59992       -2.30476
C         -1.91154       -2.23206       -1.63193
H          1.52187       -1.13769        2.28885
H          3.13007       -0.41598        2.37026
H          1.89127        0.13973        3.49984
H          1.04023        2.57195       -0.87904
H          2.78276        2.23425       -0.79835
H          1.81544        1.68032       -2.20233
H          3.02509       -0.96034       -1.62571
H          2.85634       -1.67409        0.00332
H          0.42275       -1.66449       -1.87424
H         -0.77961        0.10611       -1.96079
H         -2.08577       -2.53731        1.86491
H         -3.83376       -2.90589        2.05627
H         -3.06025       -1.62842        3.01202
H         -2.50574        0.99871        2.69162
H         -1.02316        0.00159        2.71570
H         -0.97536        1.63605        2.03369
H         -3.84144        1.68703        0.52039
H         -3.51546        1.05520       -1.12303
H         -0.63970       -2.40269       -3.37092
H         -0.23606       -3.53480       -2.00721
H         -2.28496       -2.92067       -0.87839
H         -2.70056       -1.77094       -2.22002
