36
360.log
C         -2.50005       -0.17489       -2.04590
P         -1.74239        0.19348       -0.42834
C         -3.23268        0.80335        0.49274
F         -3.57302        2.01912       -0.04423
C         -1.58257       -1.45555        0.38982
Br        -3.21007       -2.51003        0.34021
Rh        -0.01533        1.66827       -0.19415
Cl        -0.10843        0.94934        2.10211
C          3.39731        1.05974       -0.98432
P          1.77195        0.32968       -0.56681
C          1.66978       -0.85811       -1.99036
F          0.45346       -1.49360       -1.96857
C          2.21651       -0.78844        0.83393
Br         3.76460       -1.91696        0.50391
C         -0.05241        3.79494        0.50443
C          1.26320        3.28481        0.33122
H         -2.80620        0.77647       -2.48133
H         -1.76453       -0.64077       -2.69765
H         -3.36745       -0.82632       -1.93857
H         -2.99497        0.95960        1.55197
H         -4.10197        0.14546        0.37810
H         -1.32959       -1.30050        1.44040
H         -0.81953       -2.05389       -0.10454
H         -1.11901        2.68961        0.05012
H         -0.01592        2.07554       -1.65539
H          3.26170        1.74819       -1.81736
H          3.77282        1.61878       -0.12794
H          4.11658        0.28873       -1.26109
H          1.72252       -0.29400       -2.92843
H          2.44624       -1.63224       -1.96324
H          1.37867       -1.44473        1.07249
H          2.43643       -0.17514        1.70953
H         -0.40445        4.55616       -0.18438
H         -0.42059        3.91338        1.51934
H          1.83378        3.06920        1.23132
H          1.85841        3.68805       -0.48339
