44
38.log
C          5.11967        0.52786       -1.17380
C          4.43258        0.68192        0.17281
O          3.13439        1.20446       -0.04308
C          2.36439        1.32858        1.12552
P          0.64108        1.28507        0.47024
C          0.58029        2.93234       -0.31017
F         -0.09409        1.66194        1.87576
Rh         0.15924       -0.70216       -0.52810
Cl         1.06209       -1.67669        1.46641
C         -4.35938        2.16178       -1.32660
C         -2.91067        1.68445       -1.27584
O         -2.35071        1.74550        0.02812
C         -2.74675        0.69244        0.86209
P         -1.87305       -0.89133        0.42608
C         -2.13946       -1.83387        1.96401
F         -3.08222       -1.59524       -0.42788
C          1.41647       -2.09638       -1.71332
C          0.10016       -2.59257       -1.43518
H          6.11895        0.12521       -1.03573
H          4.54750       -0.14547       -1.80636
H          5.18767        1.49261       -1.66918
H          5.00391        1.36455        0.82040
H          4.35756       -0.29051        0.68109
H          2.57602        2.26653        1.66177
H          2.51366        0.48197        1.80724
H          1.26116        2.91823       -1.15665
H         -0.42995        3.13813       -0.64599
H          0.89093        3.68331        0.41362
H          1.55563       -0.67598       -1.16162
H         -0.39481       -0.05925       -1.78399
H         -4.68217        2.22196       -2.36189
H         -5.02157        1.47709       -0.80265
H         -4.44191        3.14586       -0.87150
H         -2.28595        2.33999       -1.88779
H         -2.83029        0.66294       -1.66858
H         -3.83133        0.52302        0.83626
H         -2.44874        0.97295        1.87503
H         -1.48105       -1.43823        2.73262
H         -3.18305       -1.75582        2.26593
H         -1.87697       -2.87504        1.78698
H          1.65869       -1.86008       -2.74574
H          2.23869       -2.54940       -1.16581
H          0.02076       -3.39628       -0.70725
H         -0.59118       -2.69286       -2.26776
