50
390.log
C         -3.70892        3.04693       -1.28497
C         -2.64988        2.60317       -0.31146
O         -1.66450        3.26996       -0.07756
C         -2.88870        1.25543        0.29875
C         -2.07331        0.98818        1.56363
P         -1.27787       -0.67589        1.55517
C         -0.70864       -0.75019        3.29450
N         -2.70612       -1.57736        1.69387
Rh         0.15710       -1.38182       -0.09493
Cl        -1.77896       -1.27461       -1.54906
C          3.25350        1.00516        2.23237
C          3.67759        1.39889        0.84816
O          3.97561        2.52579        0.53729
C          3.70100        0.26202       -0.15702
C          2.79630        0.59123       -1.34200
P          1.00252        0.58497       -0.90205
C          0.33125        1.12095       -2.53538
N          0.94875        1.94216        0.07979
C          0.48146       -3.45837       -0.85688
C          1.20858       -2.45437       -1.57981
H         -4.60303        3.33026       -0.73213
H         -3.36320        3.90424       -1.85679
H         -3.96957        2.23021       -1.95359
H         -3.95409        1.10151        0.46748
H         -2.59276        0.53202       -0.48237
H         -1.29314        1.74410        1.67841
H         -2.71329        1.01481        2.44953
H         -0.24834       -1.71773        3.48695
H         -1.55833       -0.60636        3.95908
H          0.03276        0.02773        3.46057
H         -3.15786       -1.60825        0.77973
H         -2.50721       -2.53755        1.96450
H         -0.26911       -2.81316        0.29559
H          1.30767       -1.49052        0.87455
H          3.24677        1.86664        2.89398
H          2.25473        0.57587        2.16542
H          3.92592        0.24308        2.62093
H          4.72941        0.14948       -0.51240
H          3.38078       -0.66897        0.31010
H          3.04651        1.58617       -1.72349
H          2.94529       -0.13489       -2.14441
H          0.46861        0.34127       -3.28021
H          0.83184        2.03559       -2.85397
H         -0.73610        1.30928       -2.42950
H          0.00642        2.30986        0.20783
H          1.54474        2.69799       -0.24735
H          1.05543       -4.16826       -0.26742
H         -0.37187       -3.90934       -1.35706
H          0.86362       -2.23210       -2.58652
H          2.29153       -2.47241       -1.49129
