50
392.log
C         -4.74227        0.19890       -1.98392
C         -3.45802       -0.49506       -1.56226
O         -3.24475       -0.23678       -0.17536
P         -1.80083       -0.15813        0.52990
C         -2.48321        0.43887        2.13339
C         -1.54414        0.41630        3.32735
C         -1.54615       -1.97763        0.86866
O         -2.02095       -2.82699        0.16081
O         -0.76412       -2.24123        1.90764
Rh        -0.12180        0.87968       -0.63794
Cl         0.14780        2.39920        1.17091
C          1.90592       -2.39171       -2.43400
C          0.98321       -2.67808       -1.26409
O          1.42214       -2.06682       -0.05463
P          1.55220       -0.47262        0.14914
C          1.96184       -0.58265        1.94434
C          2.73294        0.61055        2.49016
C          3.32473       -0.21853       -0.40891
O          4.09926       -1.12211       -0.56905
O          3.64346        1.05955       -0.53985
C         -0.17136        2.68776       -1.96348
C          1.12993        2.12139       -1.80475
H         -5.57560       -0.16606       -1.38979
H         -4.94000       -0.00018       -3.03330
H         -4.65398        1.27205       -1.83434
H         -3.53294       -1.57708       -1.70571
H         -2.60672       -0.12034       -2.14585
H         -2.79086        1.46855        1.92732
H         -3.38211       -0.16012        2.31187
H         -0.67589        1.03934        3.12721
H         -2.05862        0.81810        4.19835
H         -1.21705       -0.59442        3.55732
H         -0.59102       -3.19742        1.98543
H         -1.19547        1.83699       -1.17162
H         -0.32039       -0.04434       -1.82726
H          2.92668       -2.66621       -2.18207
H          1.58142       -2.95343       -3.30567
H          1.87602       -1.32682       -2.66453
H          0.96092       -3.74846       -1.04033
H         -0.03536       -2.34508       -1.49896
H          2.52731       -1.51317        2.05582
H          1.01114       -0.68397        2.47081
H          2.22688        1.53843        2.23214
H          2.79290        0.54284        3.57476
H          3.74616        0.64320        2.09590
H          4.58433        1.17403       -0.76694
H         -0.64764        2.61013       -2.93729
H         -0.37023        3.62586       -1.45331
H          1.83441        2.66587       -1.18447
H          1.58296        1.64508       -2.67079
