50
413.log
C          0.96856        2.64770       -1.66456
C          1.23428        2.39007       -0.21778
O          1.15735        3.21019        0.65609
P          1.70729        0.62340        0.23423
C          2.24245        0.84962        1.95720
C          3.37407        0.67765       -0.68015
C          4.28484        1.81458       -0.25900
N          3.94841       -0.62196       -0.36339
O          3.59624       -1.55322       -1.05468
O          4.66769       -0.71330        0.60509
Rh         0.31394       -1.09187       -0.34098
Cl         0.02013       -1.54863        1.99147
C         -1.56458        1.72534        1.88627
C         -1.74825        1.73517        0.41013
O         -1.82573        2.71611       -0.28281
P         -1.67135        0.07800       -0.47886
C         -2.21839        0.58743       -2.14911
C         -3.25954       -0.75824        0.09679
C         -3.29951       -1.16656        1.55938
N         -4.32416        0.20505       -0.19151
O         -4.37922        1.19173        0.50586
O         -5.05366       -0.03117       -1.12424
C          0.60535       -3.29221       -0.66389
C         -0.74164       -2.89071       -0.81874
H          1.70148        3.35560       -2.04967
H          1.00200        1.72259       -2.23686
H         -0.01226        3.11425       -1.75790
H          1.40904        0.58882        2.60914
H          3.06683        0.16845        2.17614
H          2.53180        1.88676        2.12561
H          3.14715        0.67896       -1.75080
H          4.69286        1.62259        0.73071
H          3.74971        2.76039       -0.23986
H          5.11642        1.90227       -0.95678
H          1.53971       -1.98036       -0.28936
H          0.55544       -0.83607       -1.81509
H         -0.91847        2.55365        2.17592
H         -2.53552        1.88786        2.35311
H         -1.15441        0.77204        2.21934
H         -2.92603        1.41501       -2.09599
H         -1.34953        0.90734       -2.72044
H         -2.67353       -0.26322       -2.65716
H         -3.41031       -1.61711       -0.56880
H         -4.07081       -1.91840        1.71789
H         -2.33880       -1.57488        1.87101
H         -3.52133       -0.30459        2.18350
H          1.18138       -3.56008       -1.54298
H          0.87496       -3.84087        0.23316
H         -1.43778       -3.17067       -0.03325
H         -1.16558       -2.89420       -1.81937
