50
42.log
C          4.09060        1.41918       -1.70388
N          2.80181        1.37076       -1.04073
C          2.45249        2.58146       -0.33622
C          1.35594        2.24500        0.63895
O          0.61216        3.04887        1.13834
P          1.21344        0.42728        1.00633
C          2.87096        0.05091        1.69104
C          0.27827        0.59558        2.56905
Rh         0.34978       -1.09527       -0.49339
Cl         0.67965       -2.56879        1.35196
C         -1.85181        3.77197       -0.84747
N         -3.05031        2.97505       -1.04333
C         -2.79741        1.55837       -1.15032
C         -2.55745        0.83850        0.16149
O         -2.78896        1.32570        1.23979
P         -1.86636       -0.88828        0.04118
C         -3.07649       -1.61593       -1.14211
C         -2.49589       -1.58537        1.60681
C          1.39486       -2.59460       -1.76386
C         -0.02495       -2.75322       -1.75359
H          4.26621        0.46864       -2.20446
H          4.16689        2.22559       -2.44584
H          4.87186        1.56746       -0.95696
H          2.07779        1.15751       -1.72341
H          3.31647        2.90632        0.25675
H          2.15546        3.42888       -0.97526
H          3.15909        0.81772        2.40992
H          2.77930       -0.91121        2.19541
H          3.60729       -0.02452        0.89651
H         -0.71287        1.00059        2.36577
H          0.19445       -0.39080        3.02326
H          0.80788        1.27353        3.23965
H          1.79969       -1.34665       -0.90035
H          0.15946       -0.12941       -1.65513
H         -1.29230        3.52017        0.06051
H         -1.19882        3.63103       -1.71009
H         -2.14119        4.82000       -0.79961
H         -3.68501        3.13486       -0.26426
H         -1.93791        1.37900       -1.80411
H         -3.67432        1.08730       -1.61276
H         -2.87080       -1.27346       -2.15383
H         -4.09452       -1.35075       -0.85688
H         -2.96628       -2.69927       -1.10920
H         -2.12838       -2.60681        1.69936
H         -2.11700       -1.00162        2.44284
H         -3.58567       -1.56731        1.61077
H          1.86219       -2.26700       -2.68832
H          1.98176       -3.32435       -1.21335
H         -0.42074       -3.60172       -1.20171
H         -0.56130       -2.54027       -2.67438
