36
428.log
C          4.64949        0.16404       -0.07833
C          3.44795        0.99868        0.34583
C          3.53578        1.36310        1.82406
P          1.78387        0.20602        0.02837
Br         2.06887       -1.69437        1.12228
Br         2.05392       -0.48323       -2.04496
Rh        -0.07823        1.42372        0.58038
Cl        -0.34736        1.92973       -1.72760
C         -3.52354       -2.06903        1.46050
C         -2.43385       -1.05870        1.79122
C         -1.33147       -1.70219        2.62365
P         -1.65163       -0.22830        0.30873
Br        -3.46381        0.39398       -0.78321
Br        -1.07512       -1.99829       -0.87090
C         -0.39930        3.60973        1.01992
C         -1.58771        2.83027        1.07011
H          4.64664       -0.04638       -1.14598
H          4.68475       -0.78000        0.46461
H          5.56053        0.71475        0.15032
H          3.40982        1.91858       -0.25728
H          4.39721        2.00485        1.99808
H          2.64320        1.89311        2.16101
H          3.65258        0.46607        2.43170
H          0.81508        2.66034        0.72055
H          0.10694        1.10072        2.06256
H         -3.12283       -2.90324        0.88612
H         -3.92756       -2.46849        2.38906
H         -4.34608       -1.62238        0.90496
H         -2.86867       -0.21907        2.35284
H         -0.53986       -0.98915        2.85397
H         -1.74125       -2.06215        3.56478
H         -0.89150       -2.55084        2.10083
H         -0.00852        4.01195        1.94961
H         -0.25987        4.25851        0.16065
H         -2.29432        2.94981        0.25247
H         -2.05323        2.67587        2.04094
