46
440.log
C          1.90277        2.07676       -1.96148
C          1.61407        1.93931       -0.50314
O          1.39008        2.85600        0.24566
P          1.49408        0.19691        0.15984
C          1.76745        0.48385        1.93500
C          3.15512       -0.47804       -0.35606
C          3.49876       -1.74268        0.40712
Cl         4.41668        0.76972       -0.07613
Rh        -0.25868       -1.07771       -0.58680
Cl        -0.01558       -2.30178        1.44977
C         -1.35954        2.52492        1.92892
C         -1.64510        1.05859        1.99277
O         -1.69070        0.43459        3.01917
P         -1.95977        0.07290        0.41724
C         -3.32469       -0.92669        1.11526
C         -2.91168        1.30279       -0.61420
C         -3.64265        0.65936       -1.77307
Cl        -1.68424        2.43201       -1.24889
C         -0.28548       -3.04235       -1.65769
C         -1.58371       -2.58194       -1.28435
H          1.50439        3.01645       -2.33814
H          1.47318        1.23378       -2.50079
H          2.98260        2.07533       -2.10639
H          1.03637        1.20236        2.30083
H          1.62747       -0.46012        2.46180
H          2.77194        0.87833        2.09165
H          3.14121       -0.65698       -1.43652
H          3.75632       -1.51103        1.43797
H          4.33974       -2.25765       -0.05275
H          2.63399       -2.40741        0.42049
H          0.77833       -1.96822       -1.26941
H         -0.40096       -0.30430       -1.88347
H         -0.50297        2.72684        1.28610
H         -1.16364        2.89994        2.93251
H         -2.21280        3.05477        1.50920
H         -4.07865       -0.27992        1.56550
H         -3.77194       -1.55132        0.34471
H         -2.88529       -1.56108        1.88556
H         -3.59822        1.88850        0.00571
H         -4.09095        1.42126       -2.40799
H         -2.94452        0.07512       -2.37049
H         -4.43008        0.00620       -1.40198
H         -0.04075       -3.07723       -2.71548
H          0.13554       -3.86073       -1.08104
H         -2.06231       -3.10107       -0.45926
H         -2.26529       -2.29924       -2.08235
