42
441.log
C          0.57618       -0.69442       -2.24964
P         -0.36836       -1.28632       -0.80073
C         -0.02987       -3.08099       -0.87621
C          0.77421       -0.87140        0.60069
O          2.09312       -1.29563        0.24675
C          3.06704       -0.84021        0.97994
O          3.05877       -0.13477        1.92662
Br         4.69792       -1.55155        0.22859
Rh        -2.56318       -0.74960       -0.43462
Cl        -2.14323       -1.70243        1.72020
C         -1.66884        1.61129        2.10790
P         -2.37785        1.34282        0.44321
C         -3.91344        2.33535        0.60695
C         -1.44611        2.62448       -0.55222
O         -0.08528        2.23541       -0.76286
C          0.83544        2.87630       -0.10225
O          0.76017        3.74030        0.70033
Br         2.54013        2.16907       -0.69134
C         -4.37139       -2.06887       -0.59015
C         -4.65240       -0.78152       -0.04888
H          1.60934       -1.03347       -2.20005
H          0.54197        0.38998       -2.30588
H          0.09729       -1.10240       -3.13862
H         -0.50424       -3.49272       -1.76674
H          1.04368       -3.26122       -0.91568
H         -0.45727       -3.55413        0.00770
H          0.42961       -1.40069        1.49618
H          0.77701        0.20139        0.81025
H         -2.85697       -2.13901       -0.99856
H         -2.77674       -0.16700       -1.82159
H         -1.70500        2.66708        2.37637
H         -2.26099        1.02383        2.80936
H         -0.64444        1.24917        2.16516
H         -4.57575        1.83949        1.31367
H         -3.68557        3.33675        0.97079
H         -4.41385        2.39836       -0.35732
H         -1.47657        3.60236       -0.05958
H         -1.90098        2.68422       -1.54464
H         -4.76555       -2.30667       -1.57360
H         -4.36192       -2.91016        0.09680
H         -4.86213       -0.73215        1.01619
H         -5.25082       -0.10296       -0.65013
