46
446.log
C          1.63391        0.70927        3.04377
C          1.52264        1.30412        1.69237
O          1.17644        2.43209        1.43435
P          1.86847        0.13074        0.27959
F          3.01013       -0.75702        1.01966
C          3.02418        1.13807       -0.76349
C          3.68941        0.18867       -1.75320
C          2.26639        2.24880       -1.47444
Rh         0.15880       -1.08948       -0.58082
Cl        -0.02137       -1.94536        1.64776
C         -1.35317        3.24785       -0.45391
C         -1.58178        1.94043       -1.13084
O         -1.80130        1.78830       -2.30505
P         -1.47189        0.40932       -0.07206
F         -1.37975        1.12967        1.37998
C         -3.26323       -0.07984        0.02321
C         -4.18688        1.13098        0.10273
C         -3.44118       -0.98562        1.23876
C          0.09756       -3.17388       -1.38789
C         -1.18245       -2.54157       -1.33698
H          0.98953       -0.17686        3.06022
H          2.65102        0.35920        3.21510
H          1.33751        1.41764        3.81324
H          3.77781        1.56276       -0.08862
H          2.93651       -0.24944       -2.40817
H          4.20760       -0.61454       -1.23148
H          4.41163        0.72472       -2.36582
H          2.92812        2.76914       -2.16431
H          1.87803        2.96952       -0.75974
H          1.43384        1.83271       -2.04178
H          1.18914       -2.17142       -0.91959
H          0.29673       -0.50983       -1.97548
H         -1.30223        4.05465       -1.18133
H         -2.16412        3.43401        0.24928
H         -0.43453        3.19396        0.13066
H         -3.46177       -0.63696       -0.89821
H         -3.93109        1.75118        0.96040
H         -5.21520        0.79456        0.22648
H         -4.13312        1.73240       -0.80258
H         -2.66888       -1.75136        1.28250
H         -4.41530       -1.47030        1.21328
H         -3.36996       -0.39815        2.15210
H          0.53041       -3.36957       -2.36445
H          0.30078       -3.95007       -0.65501
H         -1.87855       -2.90324       -0.58565
H         -1.65218       -2.27831       -2.28071
