40
449.log
C         -2.91936       -0.54200        2.43438
C         -2.73024        0.51943        1.36086
P         -1.71878       -0.09729       -0.04800
N         -2.85689       -1.07693       -0.81608
C         -1.88317        1.33204       -1.21697
F         -3.19764        1.71583       -1.27340
Rh         0.37402       -1.02215        0.24337
Cl         0.32870       -0.90730       -2.14786
C          1.54571        2.40999       -1.82560
C          2.49922        1.67825       -0.89436
P          1.68845        0.80360        0.50752
N          3.08536        0.48139        1.39353
C          1.02396        2.25559        1.49837
F         -0.15490        2.75621        1.02308
C          0.98215       -3.17263        0.01655
C          2.08469       -2.27183        0.16724
H         -1.95387       -0.94427        2.74136
H         -3.53310       -1.36192        2.06641
H         -3.41088       -0.11783        3.30762
H         -3.69121        0.83852        0.95194
H         -2.21420        1.38846        1.77357
H         -2.49443       -1.37586       -1.71993
H         -3.08734       -1.90143       -0.26981
H         -1.58708        1.01476       -2.22152
H         -1.30076        2.19564       -0.89410
H         -0.30987       -2.39729        0.14250
H          0.28878       -1.11774        1.75806
H          0.86386        1.69964       -2.28573
H          2.10458        2.90886       -2.61509
H          0.96561        3.15903       -1.29057
H          3.23870        2.36424       -0.46541
H          3.03567        0.90090       -1.44569
H          3.59641        1.29866        1.71088
H          2.93527       -0.16793        2.15476
H          1.74822        3.08208        1.50416
H          0.83394        1.91354        2.52398
H          0.79527       -3.87981        0.82023
H          0.81312       -3.58726       -0.97361
H          2.68490       -2.07162       -0.71549
H          2.67046       -2.34788        1.07855
