24
45.log
C         -3.22197        1.11137        0.94630
P         -1.84559        0.10056        0.30177
F         -1.58079       -0.77178        1.63879
Br        -3.01139       -1.43496       -0.76158
Rh         0.08268        0.96393       -0.52742
Cl        -0.06574        2.03448        1.60943
C          1.69743       -0.67676        2.24448
P          1.30411       -0.65116        0.46551
F          0.64370       -2.12497        0.37840
Br         3.27059       -1.17641       -0.34945
C          0.62441        2.89507       -1.52024
C          1.74506        2.10128       -1.11530
H         -2.81383        1.87752        1.60219
H         -3.91000        0.47172        1.49986
H         -3.74063        1.58213        0.11269
H         -0.64926        2.14081       -1.20288
H          0.08087        0.22166       -1.85368
H          2.18751       -1.61739        2.49745
H          2.34623        0.16570        2.47747
H          0.77301       -0.57057        2.80965
H          0.44826        3.01214       -2.58511
H          0.41392        3.79017       -0.94124
H          2.31764        2.45433       -0.25936
H          2.35756        1.65088       -1.89306
