46
46.log
C          4.44955        0.93269        0.16667
N          3.62785       -0.26004        0.17858
C          3.24085       -0.70376        1.50204
C          2.21828       -1.80460        1.28862
P          1.19630       -1.31123       -0.16971
C          0.03631       -2.73087       -0.17214
F          2.12902       -1.89993       -1.36109
Rh         0.31515        0.77031       -0.47608
Cl        -1.18988       -0.29222       -2.01331
C         -4.17672       -1.93982       -0.65164
N         -3.36091       -1.16891        0.26619
C         -3.65674        0.24959        0.21842
C         -2.89091        0.95334        1.33031
P         -1.06977        0.66784        1.31132
C         -0.62866        1.75407        2.72210
F         -1.03025       -0.72026        2.17090
C          0.60152        2.32217       -2.03010
C         -0.41999        2.64676       -1.07851
H          5.37620        0.82373        0.74822
H          3.87402        1.75846        0.58541
H          4.70715        1.17548       -0.86219
H          4.11941       -1.01148       -0.29826
H          2.76504        0.14409        2.00342
H          4.08836       -1.03940        2.12380
H          2.70006       -2.75266        1.03845
H          1.57145       -1.94736        2.15311
H         -0.54015       -2.70587       -1.09490
H         -0.63862       -2.67181        0.67677
H          0.61572       -3.65269       -0.12990
H          1.25947        0.96437       -1.66159
H          1.32040        1.44929        0.42244
H         -4.06878       -1.61676       -1.69558
H         -3.89005       -2.98752       -0.57794
H         -5.22430       -1.84259       -0.36184
H         -2.38849       -1.27214       -0.02791
H         -4.73236        0.38479        0.38057
H         -3.40237        0.69442       -0.75729
H         -3.23638        0.58913        2.30170
H         -3.04078        2.03386        1.27062
H         -1.32552        1.60393        3.54446
H          0.37913        1.50903        3.04874
H         -0.64929        2.79078        2.39839
H          1.51113        2.91601       -2.01848
H          0.27761        2.04468       -3.02942
H         -1.44868        2.60099       -1.42693
H         -0.22941        3.47886       -0.40447
