36
462.log
C          2.59869       -2.59942       -1.09379
C          1.97446       -1.24416       -1.39419
C          2.91745       -0.31757       -2.15205
P          1.40731       -0.37531        0.14053
F          0.83199       -1.66178        0.95188
Br         3.28566       -0.21884        1.25798
Rh        -0.02906        1.37780        0.18704
Cl        -0.19398        1.22166       -2.18945
C         -4.14997       -1.10853        1.35139
C         -2.84423       -0.39145        1.66636
C         -1.94019       -1.21107        2.57605
P         -1.89380        0.09685        0.15002
F         -3.12004        0.76586       -0.65396
Br        -1.82405       -1.79080       -0.94302
C          0.18140        3.60362       -0.00560
C         -1.16680        3.15142        0.13661
H          1.89615       -3.25306       -0.58015
H          3.49787       -2.49594       -0.48684
H          2.87781       -3.07614       -2.03114
H          1.06050       -1.38228       -1.98449
H          3.17193       -0.75892       -3.11315
H          2.43809        0.64293       -2.34059
H          3.84108       -0.15291       -1.59674
H          1.12088        2.40064        0.10627
H          0.03795        1.43791        1.71023
H         -3.96252       -2.09655        0.93327
H         -4.72540       -1.23419        2.26686
H         -4.75558       -0.54029        0.64677
H         -3.06233        0.57296        2.14575
H         -1.69775       -2.16944        2.11733
H         -1.01007       -0.67855        2.77751
H         -2.43518       -1.40399        3.52546
H          0.61505        4.17358        0.81057
H          0.49317        3.93942       -0.99063
H         -1.80137        3.19149       -0.74476
H         -1.68624        3.39478        1.06041
