48
465.log
C         -3.68857       -0.62186        1.42616
C         -3.28466       -1.19325        0.07433
C         -3.98605       -0.56073       -1.09667
O         -4.07673       -1.07191       -2.18444
O         -4.46926        0.65144       -0.83350
P         -1.46511       -0.95806       -0.28737
C         -1.23964       -2.07111       -1.71906
C         -0.67660       -1.95784        1.07849
O         -1.19818       -2.35782        2.07904
O          0.58910       -2.04925        0.74530
Rh        -0.59018        1.13971       -0.20205
Cl        -0.06949        0.80745        2.11360
C          2.32864       -0.75216       -2.86578
C          2.36896       -0.93310       -1.35075
C          3.74953       -1.11204       -0.80231
O          4.76180       -0.66255       -1.27782
O          3.73522       -1.82886        0.32306
P          1.69816        0.60314       -0.44765
C          2.86321        1.82807       -1.18262
C          1.81249        0.44657        2.30042
O          2.34339        0.59204        1.00896
O          1.87756       -0.95478        2.60425
C         -1.00529        3.30822        0.27574
C          0.33498        3.16246       -0.02216
H         -4.76067       -0.73329        1.57214
H         -3.44401        0.43709        1.48706
H         -3.16712       -1.15091        2.21966
H         -3.45379       -2.27624        0.03765
H         -4.85693        1.04052       -1.63368
H         -0.18507       -2.11874       -1.97710
H         -1.60905       -3.06748       -1.47445
H         -1.80380       -1.67180       -2.56103
H          1.22536       -1.96684        1.53314
H         -2.04273        1.45517        0.02429
H         -0.84717        1.33878       -1.67654
H          3.23344       -1.16358       -3.30947
H          2.26909        0.29507       -3.14756
H          1.46886       -1.26072       -3.29424
H          1.78973       -1.79773       -1.03142
H          4.61381       -1.84489        0.73317
H          3.05170        2.60465       -0.44479
H          2.44835        2.27919       -2.07974
H          3.80767        1.34426       -1.42487
H          1.78446       -1.04086        3.55771
H         -1.67659        3.74889       -0.45211
H         -1.32801        3.38504        1.30910
H          1.05987        3.15593        0.78582
H          0.70123        3.51298       -0.97982
