40
476.log
C          3.42314       -0.65462       -1.39868
P          2.08285       -0.10716       -0.26457
C          2.94895       -0.22283        1.36603
N          2.17718        0.56966        2.30311
C          2.23716        1.73278       -0.48598
O          1.30768        2.46855       -0.66963
O          3.49693        2.14387       -0.41874
Rh         0.01807       -1.01737       -0.54710
Cl        -0.04013       -1.65841        1.76071
C         -0.88460        1.80434        1.51362
P         -1.24732        0.80503        0.03684
C         -1.74161        2.06517       -1.23151
N         -2.70508        2.98081       -0.65158
C         -2.95783        0.29098        0.53980
O         -3.35752        0.19393        1.66443
O         -3.71988        0.02568       -0.52932
C         -0.56880       -3.11255       -1.06195
C         -1.67950       -2.23064       -0.86741
H          3.60315       -1.71466       -1.22002
H          4.33764       -0.09043       -1.22603
H          3.09151       -0.52570       -2.42769
H          3.95633        0.19662        1.25886
H          3.02805       -1.29274        1.62553
H          2.63080        0.58401        3.21177
H          1.27732        0.09970        2.42896
H          3.55735        3.11272       -0.49191
H          0.73997       -2.33385       -0.88502
H          0.02593       -0.60215       -2.00876
H         -1.13523        1.19887        2.38467
H          0.16806        2.07207        1.54174
H         -1.51272        2.69388        1.47617
H         -0.83147        2.60896       -1.48396
H         -2.09260        1.53026       -2.12657
H         -3.63088        2.56826       -0.63311
H         -2.75459        3.84127       -1.18420
H         -4.59442       -0.30351       -0.25715
H         -0.38182       -3.47529       -2.06909
H         -0.38735       -3.85696       -0.29113
H         -2.26345       -2.37806        0.03765
H         -2.27942       -1.97188       -1.73566
