46
484.log
C         -3.02257       -2.20099        0.24877
C         -3.98945       -1.08431        0.56388
Br        -5.15595       -0.70485       -0.97992
C         -3.38948        0.26592        0.89244
O         -3.85326        0.94822        1.77158
P         -1.87451        0.91257        0.01435
C         -2.21784        0.71296       -1.77555
C         -2.23341        2.69219        0.23334
Rh         0.05239        0.12053        0.95451
Cl         0.31838       -1.34993       -0.92840
C          4.18862        0.16947       -2.38750
C          3.51967       -0.25330       -1.08816
Br         4.73312       -1.48689       -0.13669
C          3.27071        0.93143       -0.19265
O          4.12657        1.48335        0.44580
P          1.50932        1.55022       -0.06258
C          1.85943        3.16238        0.71760
C          1.24592        2.04258       -1.81440
C          0.46930       -1.57066        2.36988
C          1.63846       -0.84908        1.98595
H         -3.54464       -3.04312       -0.20283
H         -2.56347       -2.54534        1.17550
H         -2.23448       -1.87981       -0.43153
H         -4.68470       -1.36442        1.36135
H         -1.44566        1.25492       -2.31920
H         -2.16280       -0.33148       -2.07377
H         -3.19443        1.12657       -2.02323
H         -1.45421        3.27690       -0.25431
H         -3.20558        2.93836       -0.19362
H         -2.23777        2.91643        1.29841
H         -0.77813       -0.91190        1.72304
H         -0.12825        1.07657        2.11421
H          4.45278       -0.71125       -2.96948
H          5.09518        0.73574       -2.17735
H          3.51507        0.78400       -2.98080
H          2.59398       -0.81023       -1.27053
H          2.58721        3.72414        0.13325
H          0.93185        3.72487        0.81041
H          2.26091        2.98002        1.71328
H          2.11233        2.58909       -2.18707
H          1.06633        1.15402       -2.41826
H          0.37169        2.69187       -1.86185
H          0.12950       -1.48083        3.39762
H          0.34365       -2.56568        1.95059
H          2.32693       -1.36381        1.32402
H          2.13036       -0.23573        2.73603
