46
488.log
C         -3.43695       -1.16588        1.85637
C         -3.10154        0.18756        1.24598
C         -2.47719        1.11576        2.27972
P         -1.89074       -0.09717       -0.14903
C         -2.97954       -0.81732       -1.44223
N         -2.55637        2.37265       -1.15353
O         -1.65961        1.45329       -0.75121
O         -3.71073        2.08159       -1.06790
Rh         0.07414       -1.19598        0.17887
Cl         0.24401       -0.84913       -2.17136
C          0.70950        2.96966        0.92822
C          1.69478        2.22077        0.04346
C          1.40392        2.41043       -1.43938
P          1.68134        0.40593        0.48384
C          2.41861        0.45915        2.17192
N          4.25674        0.25866       -0.45864
O          2.97588       -0.11392       -0.46308
O          4.58134        1.11240        0.31389
C          0.43202       -3.40147       -0.12195
C          1.61897       -2.66768        0.15975
H         -3.93783       -1.80963        1.13656
H         -4.09504       -1.03737        2.71361
H         -2.52506       -1.65901        2.19187
H         -4.01220        0.63926        0.83954
H         -2.35317        2.12292        1.88436
H         -1.49951        0.73413        2.57592
H         -3.10927        1.17730        3.16361
H         -3.17958       -1.85587       -1.18932
H         -3.91651       -0.26998       -1.52723
H         -2.43322       -0.78436       -2.38452
H         -0.79323       -2.44337       -0.02932
H         -0.08751       -1.35115        1.68286
H          0.67774        4.01858        0.63983
H          0.99511        2.90964        1.97649
H         -0.28598        2.55167        0.81326
H          2.70925        2.57728        0.26121
H          0.41564        2.03446       -1.68709
H          1.44915        3.46726       -1.69650
H          2.12965        1.87604       -2.05063
H          1.60610        0.57998        2.88329
H          2.90429       -0.49586        2.36705
H          3.13731        1.26679        2.28876
H          0.07743       -4.10640        0.62452
H          0.27918       -3.72807       -1.14652
H          2.30487       -2.50216       -0.66438
H          2.10595       -2.84100        1.11523
