46
490.log
C          0.50047        2.55229       -0.87958
P          1.05178        0.83613       -1.17057
C          1.56248        0.95052       -2.93143
O          2.51816        1.08692       -0.39260
C          3.33670        0.05399       -0.27564
O          3.30447       -0.90584       -0.99407
C          4.34985        0.24204        0.85379
N          4.67695        1.67159        0.99347
O          5.55189        2.09645        0.27885
O          4.04067        2.31745        1.78393
Rh         0.10669       -1.19353       -0.50022
Cl         1.38713       -1.10894        1.53542
C         -1.87524       -1.68907        2.31834
P         -1.41171       -0.52223        0.99681
C         -1.24454        1.04482        1.92278
O         -3.00468       -0.34914        0.44759
C         -3.22350        0.50021       -0.52879
O         -2.38550        1.19795       -1.03058
C         -4.69355        0.52325       -0.94373
N         -5.49573        1.29653        0.04657
O         -4.95718        1.61365        1.07366
O         -6.62930        1.54011       -0.26563
C          1.02440       -3.24628       -1.11196
C         -0.19265       -3.22201       -0.26145
H          1.13899        3.23896       -1.43218
H          0.57781        2.77285        0.18253
H         -0.53009        2.64952       -1.20507
H          2.05522        0.03123       -3.24202
H          2.23489        1.79509       -3.07479
H          0.66214        1.08716       -3.52507
H          5.25011       -0.32913        0.62254
H          3.86569       -0.11588        1.76772
H          1.27415       -2.10412       -1.34414
H         -0.82168       -1.20891       -1.69376
H         -2.66493       -1.25008        2.92518
H         -0.99626       -1.88239        2.92703
H         -2.22286       -2.62097        1.87822
H         -1.26460        1.88606        1.23511
H         -0.29521        1.02694        2.45218
H         -2.07251        1.12789        2.62592
H         -5.09459       -0.49301       -0.96906
H         -4.81575        0.99236       -1.92239
H          0.89533       -3.70531       -2.09047
H          1.92005       -3.61631       -0.61596
H         -0.04080       -3.57883        0.75687
H         -1.08173       -3.66658       -0.70762
