36
492.log
C          4.03461       -1.04452        0.04898
C          3.45291        0.15572       -0.68283
P          1.74745        0.54181       -0.06997
O          2.01017        0.85153        1.47008
C          1.75284        2.27882       -0.71384
O          1.26003        2.65772       -1.73300
Rh         0.06613       -0.92333       -0.46005
Cl         0.14985       -1.41689        1.94055
C         -0.74871        3.04880        1.11871
C         -1.53774        2.46354       -0.04066
P         -1.62255        0.60833        0.07488
O         -2.18099        0.42196        1.54741
C         -3.17985        0.51931       -0.91989
O         -4.21827        0.10141       -0.49564
C         -0.67782       -2.98009       -0.89363
C         -1.77203       -2.17236       -0.65660
H          4.13380       -0.82939        1.11116
H          5.01686       -1.28929       -0.34884
H          3.38900       -1.91369       -0.06707
H          4.07233        1.04131       -0.50837
H          3.38686       -0.02925       -1.75614
H          1.52460        0.17210        2.00257
H          2.34455        2.95305       -0.05409
H          1.20764       -1.85256       -0.76456
H          0.06066       -0.58050       -1.92972
H         -0.68169        4.13067        1.02377
H          0.26243        2.64211        1.14563
H         -1.23481        2.81172        2.06295
H         -2.56510        2.83947       -0.01649
H         -1.09054        2.72696       -1.00096
H         -1.62059       -0.22639        2.03047
H         -3.08277        0.91931       -1.95020
H         -0.43471       -3.27841       -1.90730
H         -0.32182       -3.64930       -0.11630
H         -2.28591       -2.22736        0.29898
H         -2.39049       -1.85172       -1.48843
