36
497.log
C          2.22998        2.83960       -1.17355
C          2.96051        1.60262       -0.67356
P          1.83878        0.43192        0.21352
N          1.76139        1.17198        1.71970
C          3.07894       -0.79119        0.58062
N          3.87824       -1.59272        0.75246
Rh        -0.00221       -0.52593       -0.71114
Cl         0.28780       -1.69467        1.38198
C         -3.02758       -0.69014        1.94957
C         -2.23803        0.60915        1.88336
P         -1.49986        0.87084        0.21895
N         -1.01687        2.48165        0.38873
C         -3.04045        1.01516       -0.68432
N         -4.00650        1.15465       -1.28458
C         -0.24458       -2.46882       -1.80980
C         -1.48336       -1.85821       -1.43213
H          2.90044        3.46623       -1.75817
H          1.85408        3.43026       -0.33973
H          1.39579        2.54469       -1.81093
H          3.38655        1.05362       -1.51842
H          3.76591        1.87008        0.01620
H          1.39916        0.50570        2.40158
H          1.15156        1.98624        1.70450
H          0.90127       -1.56275       -1.41195
H         -0.03484        0.27978       -2.00036
H         -3.49942       -0.79475        2.92426
H         -3.80299       -0.71304        1.18430
H         -2.35817       -1.53525        1.80238
H         -1.41360        0.58662        2.60156
H         -2.87524        1.47203        2.10761
H         -0.51092        2.82464       -0.42114
H         -1.76203        3.12618        0.63895
H         -0.00886       -2.51818       -2.86896
H          0.06432       -3.35215       -1.25643
H         -2.04095       -2.32888       -0.62626
H         -2.11549       -1.46416       -2.22356
