48
5.log
C          0.49527        4.02151        0.77243
C          1.54237        3.03077        0.38841
O          2.72588        3.19322        0.40635
O          0.96952        1.85305        0.00116
P          1.76040        0.50593       -0.47926
C          2.93292        1.13231       -1.74332
O          2.69498        0.32528        0.85953
C          3.40105       -0.82820        0.81137
C          3.99095       -1.21992        2.12074
O          3.50449       -1.40868       -0.23677
Rh         0.20233       -1.10986       -0.84454
Cl         0.75766       -2.08412        1.25753
C         -4.88267       -1.49074        1.10512
C         -3.82716       -0.42489        1.17756
O         -3.93794        0.63070        1.72826
O         -2.71414       -0.81109        0.51702
P         -1.29335        0.04507        0.42361
C         -0.95203        0.42196        2.17691
O         -1.80068        1.55163        0.04368
C         -2.16424        2.09626       -1.14174
C         -2.92904        1.19880       -2.06035
O         -1.89954        3.24518       -1.35451
C          0.22192       -3.15259       -1.73186
C         -1.05868       -2.74755       -1.24396
H         -0.26231        4.07140       -0.00929
H          0.94747        4.99443        0.93903
H         -0.00006        3.68300        1.68038
H          2.35449        1.66498       -2.49455
H          3.43265        0.28566       -2.20491
H          3.66113        1.79837       -1.28595
H          4.82867       -1.89262        1.96459
H          4.29086       -0.33589        2.67598
H          3.21661       -1.74155        2.68255
H          1.22939       -1.97909       -1.56980
H         -0.15582       -0.46423       -2.17206
H         -4.55913       -2.33955        1.70448
H         -5.82254       -1.10839        1.49162
H         -4.99887       -1.83072        0.07936
H         -1.68127        1.14531        2.53453
H          0.05667        0.81680        2.26260
H         -1.00926       -0.50493        2.74332
H         -3.87404        0.93194       -1.58974
H         -3.11754        1.70439       -3.00302
H         -2.35284        0.28606       -2.22058
H          0.34559       -3.26823       -2.80465
H          0.77243       -3.88379       -1.14660
H         -1.41226       -3.21211       -0.32795
H         -1.84504       -2.57305       -1.97380
