42
50.log
C         -2.08769       -2.61698       -1.39495
P         -1.63032       -0.94365       -0.79064
O         -1.18985       -0.20816       -2.16103
C         -3.31839       -0.22394       -0.60445
C         -3.31540        1.20341       -0.07079
C         -4.65084        1.59012        0.49486
O         -5.21518        2.62721        0.29795
Rh         0.00859       -0.81522        0.78783
Cl         1.26086       -1.69205       -1.11267
C          1.00409        2.50214        1.54332
P          0.69807        1.28778        0.21579
O         -0.32043        2.18297       -0.65401
C          2.22483        1.50133       -0.81718
C          3.45603        0.80176       -0.26164
C          4.66412        1.04639       -1.11257
O          5.76023        1.30745       -0.70362
C          0.85655       -2.34674        2.17392
C          1.56913       -1.10366        2.18340
H         -1.17837       -3.14416       -1.68066
H         -2.73952       -2.52041       -2.26236
H         -2.58934       -3.17390       -0.60752
H         -0.29528       -0.54734       -2.35496
H         -3.81992       -0.27784       -1.57359
H         -3.84227       -0.87786        0.09834
H         -3.03007        1.92242       -0.83954
H         -2.59046        1.27014        0.75126
H         -5.09490        0.81005        1.14688
H         -0.35944       -2.23872        1.24389
H         -0.86939       -0.25109        1.88075
H          0.12919        2.54481        2.18745
H          1.86456        2.20064        2.13434
H          1.17405        3.47903        1.09550
H         -0.78043        1.65557       -1.31960
H          1.99822        1.10398       -1.81106
H          2.38444        2.58039       -0.90588
H          3.27220       -0.27795       -0.29100
H          3.66456        1.09929        0.76764
H          4.46415        0.95305       -2.19884
H          0.30310       -2.61928        3.06757
H          1.34011       -3.19329        1.69342
H          2.56072       -1.10833        1.74117
H          1.50414       -0.50029        3.08451
