42
503.log
C         -3.30562        2.60181       -2.06510
C         -1.79536        2.58205       -2.24872
C         -1.05251        1.95008       -1.10929
O          0.10364        1.60011       -1.13877
O         -1.70869        2.00135        0.08038
P         -1.14768        0.99410        1.23691
C         -2.43402        1.45040        2.45845
Cl         0.38754        2.00610        1.97073
Rh        -0.97573       -1.17489        0.56720
Cl        -1.98783       -0.50122       -1.49174
C          5.11724        2.09269        0.17719
C          3.68578        1.71207        0.52772
C          3.23277        0.48530       -0.21163
O          3.83676       -0.10077       -1.05883
O          2.00242        0.10353        0.22219
P          1.06604       -1.07059       -0.42278
C          1.25051       -0.92936       -2.23956
Cl         2.21165       -2.66601       -0.09385
C         -2.42690       -2.87186        0.66588
C         -1.19034       -3.18980        0.01661
H         -3.77672        3.05054       -2.93571
H         -3.58167        3.17382       -1.18302
H         -3.67205        1.58488       -1.95366
H         -1.40659        3.60228       -2.33680
H         -1.52130        2.04461       -3.15764
H         -3.40156        1.12003        2.08702
H         -2.21644        0.95053        3.39882
H         -2.44228        2.52948        2.60287
H         -2.38062       -1.42680        1.14724
H         -0.33890       -1.57007        1.88766
H          5.21044        2.26234       -0.89198
H          5.40498        2.99771        0.70499
H          5.79930        1.29269        0.45252
H          3.57090        1.52756        1.59770
H          2.98982        2.51278        0.26489
H          2.27862       -1.13035       -2.53179
H          0.57671       -1.65306       -2.69347
H          0.95312        0.07186       -2.53832
H         -2.62440       -3.33400        1.62836
H         -3.30802       -2.78090        0.03644
H         -1.22169       -3.33001       -1.06136
H         -0.51479       -3.87355        0.52275
