44
521.log
C         -4.27462        0.60590        0.31484
N         -3.32167        1.26249       -0.56593
P         -1.66728        1.08118       -0.28947
C         -1.11625        2.09578       -1.71111
C         -1.52358        2.43207        1.06718
N         -0.11521        2.53601        1.21907
O          0.44940        1.68324        1.87711
O          0.47162        3.39066        0.57769
Rh        -0.83149       -0.95577        0.30547
Cl        -1.21628       -1.12079       -2.07673
C          2.38588       -1.43529        2.38811
N          2.50346       -0.46978        1.30611
P          1.42927       -0.62494        0.01873
C          2.22996       -1.95969       -0.94632
C          2.02997        0.85610       -0.96790
N          3.47920        0.89233       -0.93512
O          4.07594        0.25929       -1.77751
O          3.99908        1.53278       -0.05431
C         -1.91396       -2.88476        0.64911
C         -0.49953       -3.03744        0.54675
H         -4.36366       -0.46980        0.12945
H         -5.25354        1.06397        0.17014
H         -3.96783        0.75551        1.34963
H         -3.51553        1.02878       -1.53679
H         -1.92743        2.78283       -1.95167
H         -0.91801        1.44669       -2.56078
H         -0.22182        2.66746       -1.47564
H         -1.96156        3.36439        0.71354
H         -1.98300        2.05496        1.97907
H         -2.28108       -1.35985        0.57288
H         -0.68281       -0.73747        1.78943
H          3.18838       -1.25313        3.10127
H          1.42447       -1.36886        2.90871
H          2.50103       -2.44077        1.98456
H          2.43456        0.47147        1.69152
H          3.25114       -1.69169       -1.21257
H          2.24291       -2.87392       -0.35739
H          1.64608       -2.13034       -1.84981
H          1.67501        0.72378       -1.99231
H          1.65994        1.77921       -0.52013
H         -2.37932       -3.06657        1.61344
H         -2.51412       -3.21211       -0.19528
H         -0.12580       -3.48739       -0.36846
H          0.04003       -3.33865        1.43968
