42
522.log
C          4.04867        1.63602       -0.39418
C          2.65407        1.26271       -0.86806
C          1.70057        2.39678       -0.92569
O          0.65853        2.38182       -1.53037
P          1.72787        0.00762        0.22435
C          2.01518        0.67696        1.90191
C          3.01756       -1.21465        0.20295
N          3.84755       -2.00317        0.15650
Rh        -0.18587       -0.92941       -0.56288
Cl         0.39424       -2.13125        1.45964
C         -2.60788        2.13499       -1.44749
C         -2.23224        2.04457        0.02679
C         -1.11533        2.96379        0.38853
O         -0.27579        2.68209        1.20380
P         -1.74591        0.30681        0.52827
C         -1.83081        0.33671        2.35946
C         -3.38854       -0.33858        0.28620
N         -4.44902       -0.74860        0.14352
C         -0.41352       -2.86483       -1.66945
C         -1.64508       -2.33850       -1.17631
H          4.57298        2.17297       -1.18334
H          4.62745        0.74615       -0.15073
H          4.00711        2.28059        0.48152
H          2.68020        0.76170       -1.84415
H          1.97794        3.26771       -0.29989
H          1.59392       -0.02541        2.62018
H          3.08653        0.77401        2.07740
H          1.52065        1.64193        1.99352
H          0.72582       -1.86549       -1.36868
H         -0.37840       -0.12672       -1.82442
H         -1.73729        1.91495       -2.06121
H         -2.96078        3.13584       -1.68792
H         -3.39608        1.42136       -1.68086
H         -3.09681        2.32462        0.64775
H         -1.11418        3.94088       -0.12369
H         -1.79183       -0.69811        2.70235
H         -0.97251        0.87078        2.76043
H         -2.75747        0.80484        2.69248
H         -0.26571       -2.88735       -2.74510
H          0.00986       -3.72155       -1.15203
H         -2.09490       -2.83957       -0.32217
H         -2.37143       -1.98037       -1.90069
