36
535.log
C          1.22079        1.05235        2.10023
P          1.51636        0.02604        0.61833
C          2.90849       -0.98908        1.21482
C          2.44203        1.23575       -0.46781
Cl         3.09411        0.28314       -1.80235
Cl         3.74941        2.07061        0.37862
Rh        -0.11660       -1.18978       -0.40569
Cl        -0.21563       -2.18161        1.77453
C         -3.61025       -0.82383       -0.14019
P         -1.98647       -0.04342        0.18022
C         -2.25500        0.54460        1.88490
C         -2.22527        1.54593       -0.77536
Cl        -3.68303        2.44217       -0.32873
Cl        -0.79651        2.52969       -0.45697
C          0.07211       -3.21877       -1.34166
C         -1.27202       -2.76370       -1.25092
H          0.62626        1.92854        1.85039
H          0.68951        0.43044        2.81966
H          2.17610        1.36481        2.52046
H          3.35360       -1.54067        0.38693
H          2.50028       -1.69641        1.93698
H          3.65923       -0.36015        1.69283
H          1.78793        1.99806       -0.89383
H          1.05636       -2.06711       -0.82846
H         -0.03582       -0.48978       -1.74571
H         -3.68836       -1.11626       -1.18602
H         -4.41705       -0.13862        0.11734
H         -3.67657       -1.71448        0.48386
H         -3.28958        0.86117        2.01096
H         -2.03565       -0.29084        2.55001
H         -1.58274        1.36815        2.11541
H         -2.26139        1.36122       -1.85170
H          0.52316       -3.29874       -2.32593
H          0.39380       -3.98630       -0.64327
H         -1.90347       -3.23813       -0.50502
H         -1.78443       -2.52159       -2.17790
