50
542.log
C          2.29653       -0.12275        3.05864
C          2.50027        0.62431        1.74841
C          3.91129        0.48409        1.19998
O          1.50037        0.26381        0.77877
P          1.15758       -1.01844       -0.08090
C          1.78727       -2.52483        0.77138
C          2.40160       -1.01686       -1.47572
O          3.09509       -0.09698       -1.82071
O          2.34637       -2.17681       -2.12715
Rh        -1.05017       -0.97575       -0.62012
Cl        -1.20421       -1.47993        1.71833
C         -0.12858        2.65491       -2.79304
C          0.60315        2.31815       -1.50165
C          1.72060        3.30359       -1.19667
O         -0.30322        2.36373       -0.39554
P         -1.34305        1.20360       -0.03916
C         -2.93980        2.03589       -0.43195
C         -1.34663        1.45263        1.80413
O         -0.40377        1.78212        2.46408
O         -2.56386        1.23118        2.28769
C         -2.49107       -2.62538       -1.04720
C         -3.10402       -1.33511       -0.89271
H          2.80714        0.40528        3.85976
H          2.68222       -1.13701        3.00663
H          1.23432       -0.15504        3.28540
H          2.27081        1.68338        1.91816
H          4.61417        0.95510        1.88268
H          3.98539        0.96070        0.22581
H          4.18298       -0.56427        1.09109
H          2.85015       -2.44000        0.99140
H          1.21310       -2.65763        1.68650
H          1.61918       -3.37605        0.11497
H          2.90591       -2.16158       -2.92417
H         -0.99701       -2.47933       -0.96566
H         -0.87152       -0.64382       -2.09094
H         -0.88903        1.90044       -2.98631
H         -0.60564        3.62888       -2.71051
H          0.57267        2.66942       -3.62262
H          1.01605        1.30309       -1.57502
H          2.14877        3.07552       -0.22539
H          2.49617        3.22559       -1.95263
H          1.33122        4.31860       -1.17854
H         -2.88846        3.06793       -0.08720
H         -3.09232        2.01806       -1.50907
H         -3.75960        1.51852        0.05718
H         -2.56038        1.22631        3.26071
H         -2.52972       -3.08497       -2.03089
H         -2.62588       -3.33375       -0.23391
H         -3.66945       -1.17043        0.02125
H         -3.56148       -0.89093       -1.77293
