46
547.log
C         -0.05744        3.53828        0.10681
P          0.63004        1.88358        0.54980
C          0.32208        1.98844        2.34829
C          2.42168        2.38167        0.33969
O          3.33848        1.33360        0.09258
C          2.86855        0.12539        0.40190
O          1.98446       -0.05773        1.23014
N          3.93681       -0.90179        0.22241
O          4.93858       -0.58528       -0.36390
O          3.70499       -1.98656        0.70878
Rh        -0.24290        0.24755       -0.82797
Cl         1.97426       -0.47902       -1.48066
C          0.63900       -2.94850        0.37664
P         -0.40714       -1.48699        0.70200
C         -0.28775       -1.42249        2.52622
C         -2.07759       -2.36115        0.54465
O         -3.08983       -1.49043        0.05363
C         -3.37372       -0.45598        0.78221
O         -3.05396       -0.16551        1.88962
N         -4.32451        0.46221       -0.00990
O         -4.61957        0.11391       -1.12366
O         -4.67680        1.45731        0.56396
C         -0.77950        0.30178       -3.00188
C         -1.05954       -0.95230       -2.36964
H         -1.12455        3.53212        0.32117
H          0.07719        3.74259       -0.95395
H          0.41879        4.32787        0.68815
H         -0.74867        1.85608        2.49965
H          0.86353        1.21479        2.88121
H          0.61871        2.97529        2.70329
H          2.48913        3.05278       -0.52352
H          2.73651        2.92241        1.24378
H         -0.18980        1.26498       -1.97988
H         -1.59744        0.77438       -0.45561
H          0.61177       -3.20858       -0.67988
H          0.28987       -3.78979        0.97473
H          1.66541       -2.71117        0.65286
H         -0.97892       -0.68875        2.93056
H         -0.51759       -2.41065        2.92431
H          0.73215       -1.15699        2.78367
H         -2.00997       -3.15728       -0.19853
H         -2.38214       -2.77053        1.51339
H         -1.62854        0.90990       -3.29892
H          0.04408        0.33522       -3.71040
H         -0.43020       -1.79480       -2.64634
H         -2.10614       -1.21326       -2.24307
