40
554.log
C          1.25444        3.06618       -0.20046
C          2.39805        2.06591       -0.15730
C          3.00350        1.84959       -1.53669
P          1.79313        0.43823        0.47198
N          1.67224        0.76193        2.10894
F          3.23021       -0.29841        0.56487
Rh         0.20989       -0.82724       -0.57176
Cl         0.39879       -2.15861        1.44054
C         -4.13335        1.33129        0.30854
C         -2.99451        0.87312       -0.59312
C         -2.49339        2.00131       -1.48422
P         -1.57474        0.18348        0.37656
N         -2.33954       -0.74404        1.50813
F         -1.27324        1.56667        1.25393
C          0.33975       -2.69609       -1.77683
C         -1.00373       -2.28337       -1.48316
H          0.87313        3.27151        0.79732
H          0.44104        2.66783       -0.80580
H          1.58643        4.00489       -0.64082
H          3.16827        2.39029        0.55114
H          3.81962        1.13131       -1.48651
H          3.38804        2.78490       -1.93917
H          2.24554        1.46346       -2.21777
H          0.88799        1.36860        2.31591
H          1.54153       -0.11705        2.60889
H          1.30960       -1.67873       -1.23179
H          0.15220        0.03641       -1.81262
H         -4.57235        0.49041        0.83989
H         -3.77779        2.06511        1.02961
H         -4.91348        1.79714       -0.29126
H         -3.33551        0.04081       -1.21817
H         -2.16168        2.84049       -0.87560
H         -1.65674        1.65867       -2.09119
H         -3.28411        2.34732       -2.14719
H         -1.72153       -1.45814        1.89311
H         -2.86980       -0.25630        2.21710
H          0.66434       -2.65347       -2.81270
H          0.71786       -3.56518       -1.24471
H         -1.55590       -2.87593       -0.75819
H         -1.61309       -1.94496       -2.31706
