46
557.log
C         -1.91087        4.42225       -0.69614
C         -1.66637        3.10610       -1.36818
O         -1.00503        2.98173       -2.37305
C         -2.25775        1.91649       -0.64275
C         -2.31202        0.66433       -1.51384
P         -1.82901       -0.85199       -0.57940
C         -2.37125       -2.14844       -1.75327
Br        -3.56169       -0.89211        0.78626
Rh         0.16900       -1.14179        0.49323
Cl         0.77909       -2.65632       -1.25866
C          0.95340        2.13566        3.59381
C          0.78406        2.45877        2.13757
O         -0.25782        2.84710        1.66676
C          2.03657        2.29544        1.29872
C          1.72722        2.11524       -0.18396
P          1.51653        0.33304       -0.64709
C          1.32297        0.52919       -2.45946
Br         3.66391       -0.18378       -0.60609
C          0.73289       -2.71085        2.01771
C          1.80103       -1.84476        1.66602
H         -1.39521        5.22165       -1.22175
H         -1.55600        4.35844        0.33106
H         -2.97758        4.63267       -0.66965
H         -3.23901        2.16853       -0.24000
H         -1.59895        1.75486        0.22357
H         -1.61359        0.76997       -2.35067
H         -3.31301        0.51913       -1.93273
H         -2.30653       -3.12422       -1.27030
H         -3.39362       -1.96606       -2.08695
H         -1.69016       -2.14862       -2.60316
H         -0.58907       -2.24121        1.24193
H         -0.20561       -0.14324        1.57577
H          1.91766        2.47714        3.96054
H          0.14636        2.57332        4.17541
H          0.90878        1.05284        3.70714
H          2.61678        3.21227        1.44677
H          2.64038        1.46992        1.68527
H          0.79854        2.63731       -0.42650
H          2.52275        2.53437       -0.80670
H          1.12861       -0.44469       -2.90954
H          2.23002        0.95377       -2.89144
H          0.49122        1.20561       -2.65705
H          0.30396       -2.63476        3.01251
H          0.74700       -3.71964        1.61597
H          2.58499       -2.25862        1.03747
H          2.16475       -1.14915        2.41933
