40
566.log
C          1.62571       -3.17064       -0.03720
N          1.21166       -1.91104        0.55710
C          1.32413       -1.92138        2.00310
P          1.47723       -0.43758       -0.19311
C          1.72005       -0.88201       -1.94694
Br         3.65371       -0.05356        0.27573
Rh         0.05043        1.28812        0.32086
Cl         0.00203        1.81844       -2.01479
C         -4.30216       -0.61800        1.03322
N         -2.95422       -0.12947        1.26898
C         -2.37517       -0.72098        2.46148
P         -1.91275        0.15916       -0.01470
C         -3.04695        0.87196       -1.26309
Br        -1.73637       -1.87913       -0.95351
C          0.34405        3.46916        0.71840
C         -1.02598        3.06493        0.71320
H          1.19188       -3.97766        0.55250
H          1.23621       -3.25580       -1.04837
H          2.71541       -3.28909       -0.04036
H          1.05280       -0.94311        2.40087
H          0.64997       -2.67368        2.41621
H          2.34814       -2.14794        2.32149
H          2.53822       -1.59244       -2.06336
H          0.79707       -1.28299       -2.36322
H          1.95906        0.04076       -2.47816
H          1.24266        2.23957        0.47882
H          0.12237        1.00288        1.80639
H         -4.84066       -0.61138        1.98098
H         -4.30509       -1.64303        0.64151
H         -4.83240        0.03114        0.34136
H         -2.98086       -0.45050        3.32766
H         -2.32847       -1.81380        2.39077
H         -1.36847       -0.33196        2.60392
H         -2.43121        1.20932       -2.09865
H         -3.77479        0.14788       -1.62730
H         -3.54753        1.73588       -0.82613
H          0.78656        3.76511        1.66498
H          0.69624        4.05007       -0.12934
H         -1.62634        3.38283       -0.13475
H         -1.56262        3.07459        1.65857
