44
579.log
C         -1.32162        2.93247       -0.69965
C         -1.75408        2.26364        0.59657
P         -1.74871        0.41721        0.52954
C         -3.11203        0.20702       -0.58803
N         -4.01455        0.04891       -1.27584
C         -2.65881        0.05213        2.09936
C         -3.08484       -1.40727        2.17264
Rh        -0.02116       -0.92351       -0.11492
Cl        -0.47295        0.15268       -2.21172
C          2.65441        1.63687       -1.91291
C          3.13187        0.70457       -0.80608
P          1.79664        0.34475        0.42175
C          1.55985        2.01298        0.98766
N          1.42006        3.07115        1.40637
C          2.78763       -0.13894        1.91258
C          3.37399       -1.53815        1.80412
C         -0.10654       -2.86476       -1.23240
C          1.21341       -2.33660       -1.11785
H         -1.98373        2.65163       -1.51662
H         -0.31005        2.63721       -0.97081
H         -1.34365        4.01413       -0.58272
H         -1.09486        2.55916        1.41949
H         -2.77869        2.56045        0.84964
H         -1.98326        0.29546        2.92538
H         -3.53188        0.70895        2.16133
H         -3.59803       -1.60737        3.11098
H         -3.75922       -1.64818        1.35172
H         -2.21450       -2.05992        2.10825
H         -1.11111       -1.93337       -0.48934
H          0.12174       -1.62002        1.22898
H          2.41363        2.61924       -1.50869
H          3.43179        1.75577       -2.66505
H          1.76413        1.23599       -2.39521
H          3.44696       -0.25381       -1.22976
H          3.97961        1.14283       -0.26777
H          3.57915        0.60376        2.05267
H          2.11172       -0.08413        2.77133
H          4.02990       -1.62142        0.93947
H          2.57538       -2.27155        1.71196
H          3.95179       -1.77174        2.69623
H         -0.34239       -3.77236       -0.68386
H         -0.58887       -2.80143       -2.20364
H          1.64655       -1.90481       -2.01635
H          1.92327       -2.88564       -0.50614
