44
580.log
C         -3.56226       -0.03586       -1.53855
C         -2.92753       -1.14058       -0.70707
C         -3.97547       -1.93478        0.06052
P         -1.67829       -0.36310        0.42858
N         -1.21021       -1.74194        1.29893
N         -2.68609        0.42281        1.50903
Rh        -0.01375        0.99886       -0.36267
Cl         0.43338        1.13017        1.99658
C          3.48921       -0.30688        1.16967
C          2.47749       -1.35722        0.72531
C          3.15873       -2.67310        0.37213
P          1.45206       -0.70177       -0.68005
N          0.70135       -2.12667       -1.19622
N          2.68010       -0.54814       -1.85231
C          0.13419        3.21398       -0.47836
C          1.36388        2.53702       -0.78780
H         -2.79778        0.50644       -2.09310
H         -4.28461       -0.44425       -2.24331
H         -4.07032        0.66800       -0.88217
H         -2.37430       -1.82206       -1.36522
H         -4.59371       -2.50424       -0.63188
H         -4.62397       -1.26270        0.61715
H         -3.50268       -2.62666        0.75358
H         -0.63380       -1.43366        2.08101
H         -0.65185       -2.36791        0.72379
H         -2.15504        1.08234        2.07149
H         -3.16263       -0.23899        2.11520
H         -0.97381        2.19440       -0.22240
H         -0.37381        0.88344       -1.83296
H          4.26439       -0.16353        0.41844
H          3.96999       -0.61872        2.09547
H          2.98817        0.64106        1.35625
H          1.77285       -1.51842        1.54920
H          2.43009       -3.46648        0.22507
H          3.75135       -2.56160       -0.53345
H          3.82266       -2.96872        1.18282
H         -0.10198       -1.92498       -1.78145
H          1.35390       -2.72434       -1.69460
H          2.27588       -0.22870       -2.72900
H          3.36459        0.14380       -1.56448
H         -0.36191        3.74779       -1.28424
H          0.08387        3.73467        0.47435
H          2.16181        2.61951       -0.05307
H          1.72161        2.60840       -1.81313
