44
593.log
C         -1.91398       -1.89292        2.09191
P         -1.74855       -0.79790        0.63225
C         -1.78960        0.77409        1.46391
N         -1.77162        1.78056        2.01004
C         -3.47219       -0.79813       -0.02974
C         -3.72252        0.45239       -0.86954
C         -4.24240        1.57546        0.00459
O         -4.79361        1.41753        1.06126
O         -4.05075        2.76614       -0.55252
Rh        -0.04380       -1.07034       -0.84218
Cl        -0.04224        1.32187       -1.14681
C          1.40321        0.53757        1.97696
P          1.62209       -0.71676        0.66604
C          2.00968       -2.09687        1.71725
N          2.21093       -2.99475        2.40006
C          3.33957       -0.35664        0.08335
C          3.41292        0.95767       -0.70316
C          4.13983        2.07701       -0.00796
O          4.71752        2.96345       -0.57548
O          4.07246        2.01487        1.33153
C         -0.00374       -1.34770       -3.06689
C          1.29176       -1.31204       -2.46761
H         -2.69348       -1.52424        2.75873
H         -2.16913       -2.89060        1.73524
H         -0.96317       -1.95331        2.62264
H         -3.58751       -1.71070       -0.62244
H         -4.18372       -0.82055        0.80292
H         -4.47926        0.26673       -1.63628
H         -2.81653        0.80258       -1.37384
H         -4.36438        3.47666        0.02953
H         -1.08029       -1.24683       -1.95932
H         -0.04490       -2.57060       -0.60635
H          1.16044        1.49026        1.50643
H          0.57749        0.25406        2.63020
H          2.32153        0.63345        2.55483
H          3.99107       -0.32686        0.96122
H          3.65188       -1.19639       -0.54344
H          3.89568        0.82047       -1.67204
H          2.39850        1.33686       -0.90355
H          4.52093        2.78294        1.71831
H         -0.34741       -2.28973       -3.48401
H         -0.30988       -0.47667       -3.63968
H          1.88804       -0.42412       -2.65240
H          1.86454       -2.23584       -2.45465
