40
596.log
C          1.61552        3.75914       -0.47992
C          1.11085        2.45231       -1.07628
P          1.48890        0.94234       -0.07159
N          1.35994        1.50235        1.49367
C          3.32662        0.88913       -0.37634
Cl         4.00062       -0.37075        0.67817
Rh         0.34096       -0.97269       -0.51266
Cl         0.00573       -1.26620        1.84793
C         -3.48777       -1.56727        0.91558
C         -3.24308       -0.94115       -0.45247
P         -1.68229        0.05487       -0.55199
N         -1.93912        1.12485       -1.82049
C         -1.93509        1.21227        0.86218
Cl        -3.46651        2.08702        0.69724
C          0.96150       -3.11116       -0.63833
C         -0.43548       -2.90463       -0.86308
H          1.22076        3.89274        0.52432
H          2.70169        3.78994       -0.43449
H          1.28243        4.59521       -1.09147
H          1.53153        2.28288       -2.07104
H          0.02466        2.48836       -1.18685
H          2.20187        1.91166        1.88442
H          1.00624        0.75346        2.09634
H          3.80965        1.83248       -0.11504
H          3.54475        0.62224       -1.41014
H          1.66572       -1.73410       -0.42685
H          0.53834       -0.77253       -2.00397
H         -4.21157       -2.37639        0.83806
H         -3.87990       -0.82860        1.61038
H         -2.56505       -1.96534        1.33185
H         -3.15568       -1.71705       -1.22057
H         -4.07557       -0.28445       -0.72886
H         -2.88383        1.49399       -1.87897
H         -1.62626        0.76539       -2.71274
H         -1.95015        0.65787        1.80051
H         -1.12667        1.94613        0.88183
H          1.57150       -3.43239       -1.47789
H          1.25537       -3.55796        0.30779
H         -1.11233       -3.24003       -0.08261
H         -0.81143       -3.08398       -1.86781
