40
603.log
C         -3.03946       -2.50800        0.49315
C         -2.34601       -1.24117        0.97949
P         -1.89630       -0.09292       -0.38753
C          0.07476       -2.56199       -2.02569
O         -0.26728       -1.96209       -1.09772
C         -3.25911        1.15102       -0.25417
Cl        -4.85162        0.36062       -0.25620
Rh         0.10931        1.00304       -0.43979
Cl        -0.36723        1.30394        1.88556
C          1.10311       -1.78311        2.73483
C          1.18715       -2.19924        1.26837
P          1.48369       -0.75759        0.12278
C          2.32075       -1.51004       -1.32214
O          1.93356       -2.41059       -2.03819
C          3.07129       -0.24282        0.98330
Cl         4.23025        0.61131       -0.04916
C          0.51293        3.21972       -0.61591
C          1.68330        2.45630       -0.37013
H         -2.40545       -3.06032       -0.19797
H         -3.26891       -3.15180        1.34047
H         -3.97041       -2.26735       -0.01443
H         -2.99436       -0.67944        1.65814
H         -1.43735       -1.48089        1.53261
H         -2.43403       -0.77530       -1.47368
H         -3.23300        1.83345       -1.10748
H         -3.16178        1.71485        0.67705
H         -0.70553        2.24214       -0.78577
H          0.32359        0.79177       -1.92815
H          0.65312       -2.58525        3.31664
H          2.08455       -1.57723        3.15346
H          0.49126       -0.88953        2.84855
H          0.26395       -2.69773        0.97361
H          2.01088       -2.90389        1.10506
H          3.25110       -0.98320       -1.58871
H          3.59188       -1.11998        1.37488
H          2.80532        0.42572        1.80471
H          0.40119        3.69089       -1.58757
H          0.10309        3.79743        0.20783
H          2.11582        2.52566        0.62347
H          2.40886        2.37857       -1.17362
