50
606.log
C          1.96581       -2.90853       -1.90974
C          1.17005       -1.61205       -1.95850
P          1.14184       -0.70603       -0.35707
C          1.30154       -1.95200        0.98433
C          2.93686       -0.17837       -0.41067
O          3.57203       -0.10430       -1.42615
C          3.55774        0.25165        0.93552
N          4.71801       -0.61373        1.19230
O          5.81504       -0.13689        1.06634
O          4.47726       -1.76246        1.48933
Rh         0.12986        1.38535       -0.24921
Cl        -1.41688        0.70238       -2.01601
C         -1.24034        0.70890        3.52629
C         -1.78368       -0.21163        2.44146
P         -1.73461        0.62302        0.80024
C         -3.26396        1.61942        0.79774
C         -2.02825       -0.79694       -0.36929
O         -1.16452       -1.66510       -0.39116
C         -3.42142       -1.09609       -0.93712
N         -4.13260       -1.88725        0.07244
O         -4.41724       -3.02587       -0.18677
O         -4.36291       -1.32717        1.12385
C          0.62575        3.31499       -1.23662
C         -0.52647        3.38362       -0.38936
H          2.01361       -3.33697       -2.90882
H          2.98449       -2.73397       -1.56937
H          1.49217       -3.63254       -1.25257
H          0.14336       -1.80637       -2.26838
H          1.61992       -0.91157       -2.67115
H          0.52876       -2.70139        0.83985
H          2.28676       -2.41530        0.96184
H          1.14701       -1.46996        1.94845
H          3.90774        1.28285        0.85650
H          2.82360        0.13368        1.73262
H          1.25213        1.87822       -1.18102
H          0.92528        1.74655        0.97659
H         -1.15445        0.17610        4.47055
H         -1.89885        1.56183        3.67455
H         -0.25609        1.08366        3.24480
H         -2.81240       -0.51074        2.65531
H         -1.16838       -1.11167        2.35958
H         -3.11272        2.45986        1.47422
H         -3.45616        2.01043       -0.20056
H         -4.10008        1.01616        1.14942
H         -3.96509       -0.16896       -1.11619
H         -3.32615       -1.68844       -1.84929
H          1.51733        3.84872       -0.92314
H          0.46149        3.34876       -2.31026
H         -1.49130        3.48308       -0.87935
H         -0.44394        3.96542        0.52413
