48
61.log
C          1.63233       -2.01317       -2.06101
C          1.76513       -1.18083       -0.79545
O          2.91772       -1.54644       -0.05951
N          4.09444       -0.83226       -0.30867
O          5.00521       -1.20253        0.34194
O          4.03733        0.02879       -1.12245
P          0.29847       -1.38393        0.37028
C          0.40353       -3.18661        0.64687
C          0.97354       -0.78520        1.96780
Rh        -1.70981       -0.68911       -0.45131
Cl        -2.13943       -1.28835        1.81549
C          0.33724        2.47578       -1.86339
C          0.08003        2.43350       -0.36614
O          1.06757        1.65966        0.29662
N          2.28189        2.28571        0.59206
O          2.36599        3.44029        0.35265
O          3.07130        1.54619        1.07143
P         -1.52312        1.56382        0.08739
C         -2.64131        2.82493       -0.65643
C         -1.63979        2.09320        1.83859
C         -3.77564       -1.42832       -1.00864
C         -3.86078       -0.07601       -0.76619
H          2.34541       -1.68163       -2.81369
H          1.81622       -3.06147       -1.84156
H          0.62314       -1.89977       -2.45195
H          1.83560       -0.12256       -1.06570
H          0.14025       -3.73142       -0.25695
H          1.41746       -3.43518        0.96081
H         -0.30629       -3.44196        1.43281
H          1.94452       -0.31595        1.84198
H          1.06652       -1.64441        2.62909
H          0.27744       -0.08499        2.41918
H         -1.70323       -2.12402       -0.88994
H         -1.33367       -0.38871       -1.88837
H          1.34993        2.81848       -2.07027
H         -0.35817        3.16059       -2.33884
H          0.20349        1.48053       -2.28532
H          0.08334        3.44758        0.05872
H         -2.71366        2.67801       -1.73163
H         -3.63300        2.72301       -0.22038
H         -2.26393        3.82603       -0.45059
H         -0.76222        1.76547        2.39176
H         -1.74187        3.17553        1.91114
H         -2.50914        1.60534        2.27883
H         -3.79871       -1.79988       -2.02661
H         -4.07454       -2.13587       -0.24288
H         -4.25347        0.26825        0.18551
H         -3.97052        0.60685       -1.60004
