46
620.log
C          0.67573        0.33298        2.87100
P          1.27395        0.83360        1.21674
C          1.71952        2.58940        1.53427
C          2.96053        0.06817        1.28479
C          3.81730        0.51465        0.09805
C          4.96767       -0.40964       -0.11966
O          6.12317       -0.19649        0.02499
Cl         4.43107       -2.01581       -0.65249
Rh         0.08421        0.21738       -0.64147
Cl        -1.20486       -1.26288        0.73984
C         -1.77035        2.89327       -1.97665
P         -1.67011        1.68923       -0.59866
C         -1.86459        2.83534        0.82448
C         -3.38582        1.01344       -0.69682
C         -3.78331        0.06572        0.43323
C         -3.45610       -1.37191        0.09831
O         -3.40846       -1.85471       -0.99429
Cl        -3.92265       -2.42329        1.49446
C          0.39373       -1.48232       -2.08241
C         -0.73214       -0.67004       -2.39622
H          1.36568        0.67500        3.64149
H          0.58736       -0.75151        2.89900
H         -0.31186        0.75559        3.04652
H          2.52037        2.64240        2.27077
H          0.85033        3.12021        1.91476
H          2.03877        3.05886        0.60638
H          2.81391       -1.01516        1.25258
H          3.44779        0.32359        2.22941
H          4.21337        1.51752        0.26578
H          3.18852        0.51951       -0.79970
H          1.12286       -0.89444       -0.81597
H          0.89728        1.16583       -1.50047
H         -0.85354        3.47926       -2.00095
H         -2.62567        3.55577       -1.84996
H         -1.86212        2.35478       -2.91768
H         -1.79913        2.28607        1.76181
H         -2.82635        3.34433        0.76770
H         -1.06394        3.57156        0.78807
H         -3.49005        0.49007       -1.65173
H         -4.05633        1.87897       -0.70814
H         -3.33575        0.34652        1.38566
H         -4.87132        0.08724        0.55882
H          1.25530       -1.44891       -2.74297
H          0.19876       -2.46704       -1.66837
H         -1.71207       -1.10250       -2.22198
H         -0.67016       -0.04932       -3.28662
