48
632.log
C         -3.68930        0.84802        2.40995
O         -3.14387        0.29615        1.23712
C         -4.07427        0.00184        0.21487
C         -3.19835       -0.43502       -0.95010
P         -1.57184        0.37267       -0.59965
C         -2.00803        2.12900       -0.94305
N         -0.83761        0.16726       -2.23833
O          0.36445        0.40426       -2.33046
O         -1.55857        0.00980       -3.19523
Rh         0.02389       -0.70839        0.65504
Cl        -0.52896       -2.26819       -1.13520
C          0.41823        3.39151        1.43925
O          0.78773        2.72348        0.25778
C          2.18335        2.68317        0.06664
C          2.47805        1.63864       -0.99396
P          1.83687       -0.04054       -0.52626
C          2.57068       -1.07887       -1.83595
N          3.19855       -0.22852        0.70503
O          4.21718       -0.82180        0.42559
O          3.01254        0.35026        1.75370
C         -0.44365       -2.32954        2.21240
C          0.96756       -2.13714        1.80198
H         -2.85145        1.05680        3.07255
H         -4.23144        1.77733        2.19856
H         -4.37332        0.14100        2.89183
H         -4.65967        0.89967       -0.03193
H         -4.77247       -0.78191        0.53989
H         -3.58726       -0.12689       -1.92112
H         -3.04834       -1.51561       -0.95846
H         -2.58299        2.52789       -0.11237
H         -2.58692        2.19692       -1.86548
H         -1.08313        2.69617       -1.02860
H         -1.08074       -1.49033        1.62096
H          0.27744        0.31652        1.71864
H          0.70474        4.45018        1.40067
H         -0.66274        3.30671        1.52273
H          0.88719        2.92701        2.31293
H          2.55339        3.67192       -0.25340
H          2.67838        2.42227        1.01265
H          3.55508        1.55367       -1.16302
H          1.98663        1.90734       -1.92843
H          2.05242       -2.03501       -1.86224
H          3.62484       -1.24123       -1.61723
H          2.44644       -0.58735       -2.79626
H         -0.64879       -2.12905        3.26258
H         -0.88520       -3.27300        1.89329
H          1.40135       -2.95604        1.22732
H          1.64064       -1.79798        2.58742
