50
642.log
C          4.59564        1.40703       -0.60125
C          4.14778        0.03522       -0.98570
O          4.11432       -0.40210       -2.10818
C          3.75286       -0.84896        0.20907
O          4.28170       -0.71337        1.28657
C          2.70739       -1.87239       -0.08412
P          1.09243       -1.27943        0.63362
C          0.09561       -2.77925        0.35206
C          1.50232       -1.41663        2.41412
Rh         0.34800        0.67305       -0.27282
Cl        -1.34656       -0.50092       -1.47333
C         -3.91737       -2.28222       -1.52369
C         -3.84469       -0.85889       -1.04459
O         -4.43057        0.06246       -1.57185
C         -3.05462       -0.64614        0.23742
O         -2.69409       -1.56350        0.96169
C         -2.98144        0.79344        0.69744
P         -1.29215        1.18814        1.31162
C         -1.33483        0.37756        2.95694
C         -1.55963        2.91986        1.87525
C          0.47441        2.07945       -2.03455
C         -0.42637        2.59493       -1.12528
H          3.72586        1.96017       -0.24636
H          5.29500        1.33131        0.22883
H          5.04269        1.92272       -1.44599
H          2.59144       -2.00347       -1.16195
H          2.95032       -2.81974        0.40331
H         -0.91529       -2.60599        0.72284
H          0.54577       -3.62653        0.86813
H          0.04020       -2.97368       -0.71798
H          2.03320       -0.52499        2.74157
H          2.13994       -2.28586        2.56970
H          0.58914       -1.53312        2.99011
H          1.36755        0.26377       -1.29945
H          1.42337        1.42189        0.48453
H         -4.95467       -2.60990       -1.47684
H         -3.59470       -2.33554       -2.56051
H         -3.29918       -2.92268       -0.90219
H         -3.68652        0.92443        1.52401
H         -3.26456        1.45557       -0.12451
H         -1.45852       -0.69455        2.82248
H         -2.18018        0.76233        3.52775
H         -0.40994        0.58915        3.49074
H         -0.62745        3.31048        2.28038
H         -1.87942        3.55177        1.05026
H         -2.32312        2.93947        2.65211
H          1.46661        2.50764       -2.12208
H          0.11688        1.55990       -2.91680
H         -1.48862        2.50672       -1.32826
H         -0.13165        3.44059       -0.51346
