30
643.log
C         -2.47015       -1.45988       -1.43288
P         -1.85774       -0.30127       -0.15762
C         -2.20586       -1.22019        1.37957
F         -3.16449        0.66750       -0.12732
Rh         0.15122        0.72667       -0.41172
Cl         0.14019        1.10135        1.95009
C          2.78789       -1.56521       -1.06878
P          1.32262       -1.16342       -0.04893
C          1.92241       -1.58651        1.61975
F          0.50897       -2.56084       -0.32707
C          0.78658        2.84532       -0.65842
C          1.87751        1.91970       -0.57083
H         -2.51626       -0.93972       -2.38668
H         -1.77897       -2.29311       -1.51640
H         -3.46160       -1.81609       -1.16056
H         -1.57648       -2.10663        1.40938
H         -3.25810       -1.49837        1.40029
H         -1.96979       -0.58158        2.22883
H         -0.54322        2.07943       -0.61815
H          0.14620        0.48863       -1.91497
H          2.51516       -1.50890       -2.11988
H          3.56973       -0.83815       -0.86558
H          3.13830       -2.56798       -0.83228
H          2.33912       -2.59223        1.61735
H          2.67664       -0.85840        1.90726
H          1.09924       -1.51377        2.32691
H          0.62245        3.34524       -1.60875
H          0.60671        3.48141        0.20382
H          2.45996        1.93645        0.34708
H          2.47887        1.77167       -1.46467
