38
645.log
C          2.44023       -0.68880        2.92959
C          1.99632       -1.48168        1.70750
P          1.59617       -0.35010        0.31332
C          1.39871       -1.55701       -0.97035
N          1.25733       -2.33204       -1.80129
C          3.24498        0.29638       -0.21161
Cl         4.42949       -1.01655       -0.39584
Rh        -0.04773        1.21338        0.37192
Cl         0.59647        1.36790       -1.92624
C         -1.65855       -1.17811       -2.72438
C         -2.53722       -0.41909       -1.73754
P         -1.75541       -0.19834       -0.08838
C         -1.40254       -1.87901        0.36017
N         -1.09324       -2.92488        0.71234
C         -3.24068        0.02773        0.99588
Cl        -4.38866       -1.32519        0.84691
C          0.02207        3.44970        0.48337
C         -1.28233        2.92253        0.20945
H          3.40990       -0.22474        2.76023
H          2.52293       -1.34406        3.79334
H          1.71385        0.09220        3.15629
H          1.08279       -2.04531        1.92284
H          2.76839       -2.18546        1.38461
H          3.13102        0.79550       -1.17779
H          3.62296        1.00347        0.53149
H          0.98727        2.30778        0.70191
H         -0.35460        1.07216        1.85539
H         -0.72892       -0.64432       -2.90716
H         -1.41411       -2.17053       -2.34950
H         -2.18248       -1.28405       -3.67182
H         -3.48743       -0.94146       -1.58413
H         -2.74171        0.59027       -2.11292
H         -2.92088        0.08508        2.03825
H         -3.75899        0.94832        0.71788
H          0.17460        3.94089        1.44012
H          0.54345        3.92848       -0.34108
H         -1.66093        3.05570       -0.80098
H         -2.03925        3.04252        0.98041
