46
652.log
C          2.20440       -0.79466       -2.04996
N          2.35300       -1.02851       -0.62061
C          3.30988       -0.26033       -0.04033
O          3.90430        0.64435       -0.60417
O          3.66438       -0.66154        1.18208
P          0.85352       -1.46650        0.16566
C          0.92712       -3.26939       -0.20411
C          1.22303       -1.58352        1.94395
Rh        -1.16872       -0.57703       -0.54387
Cl        -2.05313       -1.63476        1.40119
C         -0.39301        3.59292       -0.99881
N         -0.02784        2.60361       -0.00383
C          1.21949        2.09300        0.03435
O          1.44300        1.13663        0.76512
O          2.14880        2.67351       -0.70814
P         -1.13887        1.39428        0.60247
C         -2.67183        2.40198        0.53289
C         -0.90625        1.49226        2.41469
C         -2.79863       -1.55875       -1.70926
C         -3.14467       -0.25729       -1.23711
H          1.52042       -1.53946       -2.45133
H          3.17996       -0.89223       -2.52599
H          1.80912        0.20176       -2.26372
H          4.32753       -0.04938        1.53359
H          1.87037       -3.68140        0.15191
H          0.09774       -3.74280        0.31886
H          0.82534       -3.46473       -1.26983
H          1.46118       -0.61099        2.35725
H          0.30816       -1.96229        2.39939
H          2.04517       -2.27616        2.10771
H         -1.30167       -1.87622       -1.33369
H         -0.61698        0.10820       -1.77906
H         -1.04687        4.34281       -0.55685
H          0.51517        4.07593       -1.35335
H         -0.89655        3.12193       -1.84635
H          2.96009        2.10280       -0.71059
H         -3.44823        1.83072        1.03835
H         -2.52907        3.34652        1.05596
H         -2.98774        2.58442       -0.49059
H         -0.96153        2.53192        2.73473
H          0.03992        1.05721        2.71489
H         -1.71552        0.91419        2.85927
H         -2.67902       -1.69861       -2.77970
H         -3.24768       -2.40865       -1.20405
H         -3.85880       -0.20758       -0.42063
H         -3.27153        0.52573       -1.98014
