46
655.log
C          3.04835        2.07703       -2.04433
C          3.33852        1.08630       -0.92888
P          1.80314        0.66316        0.01830
C          1.61276        2.30220        0.87615
O          2.41196        2.68745        1.67543
O          2.47239       -0.10376        1.29911
C          2.83213       -1.39057        1.14558
C          3.11292       -2.05752        2.45328
O          2.90058       -1.89847        0.05767
Rh         0.14035       -0.46966       -1.11203
Cl        -0.30545       -1.71450        0.97258
C         -2.70757        2.57707       -1.49690
C         -2.16470        2.32273       -0.09676
P         -1.52765        0.58571        0.00471
C         -0.90182        0.43595        1.74016
O          0.13938        0.98848        2.06219
O         -2.91376       -0.30537        0.00869
C         -3.91002       -0.18601        0.91445
C         -4.96684       -1.22355        0.68414
O         -3.91391        0.64404        1.77731
C          0.16802       -2.28530       -2.38494
C         -1.13931       -1.74147       -2.20045
H          2.29764        1.67241       -2.72128
H          2.67584        3.01548       -1.63729
H          3.95230        2.28283       -2.61358
H          4.04150        1.50644       -0.20104
H          3.75719        0.16309       -1.33530
H          0.75424        2.91332        0.54435
H          2.15803       -2.33541        2.89783
H          3.60934       -1.36230        3.12415
H          3.70923       -2.95170        2.29897
H          1.24376       -1.34177       -1.70124
H          0.25262        0.44934       -2.29941
H         -3.55170        1.92151       -1.70536
H         -3.03946        3.60806       -1.59862
H         -1.93426        2.38245       -2.23944
H         -2.93066        2.47210        0.66708
H         -1.32927        2.99146        0.11631
H         -1.57540        0.01601        2.50132
H         -5.24308       -1.24606       -0.36695
H         -5.83300       -1.01398        1.30433
H         -4.55752       -2.19784        0.94615
H          0.60538       -2.23359       -3.37722
H          0.42164       -3.19406       -1.84525
H         -1.82142       -2.28142       -1.54947
H         -1.62613       -1.28818       -3.05915
