40
658.log
C          1.65141        1.08351        2.12069
P          1.62346        0.40525        0.42397
C          2.63736        1.76960       -0.39249
C          2.57780        1.55714       -1.86409
O          1.78609        2.09025       -2.59261
C          2.96120       -0.88394        0.49852
O          3.19168       -1.63555       -0.40987
O          3.65877       -0.84360        1.62573
Rh        -0.13302       -0.62935       -0.61091
Cl         0.43962       -1.87365        1.39064
C         -1.95995        0.61828        2.20562
P         -1.84082        0.47858        0.38464
C         -2.12474        2.23763       -0.14793
C         -0.76281        2.83863       -0.19933
O         -0.18688        3.27121        0.76794
C         -3.55353       -0.13833        0.02356
O         -4.32979        0.35575       -0.74460
O         -3.78410       -1.23500        0.73219
C         -0.08714       -2.48025       -1.85268
C         -1.39758       -2.12612       -1.41702
H          2.68241        1.29862        2.39925
H          1.23049        0.35241        2.80773
H          1.06825        2.00279        2.13532
H          2.15579        2.71053       -0.11812
H          3.65898        1.72521       -0.00936
H          3.30704        0.81970       -2.25128
H          4.30579       -1.56931        1.66210
H          0.94771       -1.37886       -1.38468
H         -0.31098        0.23667       -1.83262
H         -1.73600       -0.35622        2.63905
H         -2.95479        0.94561        2.50694
H         -1.21454        1.33925        2.53923
H         -2.75747        2.73060        0.59352
H         -2.60438        2.21094       -1.12656
H         -0.27709        2.81709       -1.18965
H         -4.65688       -1.62137        0.54032
H          0.13977       -2.39372       -2.91070
H          0.39876       -3.32207       -1.36675
H         -1.84038       -2.72747       -0.62579
H         -2.10814       -1.78649       -2.16615
