40
667.log
C          3.28120       -0.73189       -2.37847
C          3.01331        0.54726       -1.59481
C          2.47143        1.63911       -2.50648
P          1.81010        0.15825       -0.21375
Br         1.81612        2.03405        0.86865
N          3.06931       -0.68016        0.80855
O          3.22929       -1.84208        0.50494
O          3.73011       -0.04143        1.58199
Rh         0.05340       -1.30677       -0.29351
Cl         0.53955       -1.19649        2.06992
C         -2.65584        2.55527        1.17048
C         -1.86956        1.28180        1.45220
C         -2.52453        0.42035        2.52838
P         -1.63285        0.19344       -0.04729
Br        -3.69184       -0.28982       -0.56069
N         -1.39062        1.50551       -1.28801
O         -0.21920        1.81003       -1.41034
O         -2.31860        1.99043       -1.87535
C          0.01124       -3.55524       -0.21669
C         -1.26525       -2.96266       -0.06350
H          2.35580       -1.09619       -2.82579
H          3.99144       -0.53007       -3.17774
H          3.69470       -1.51986       -1.74979
H          3.93766        0.90130       -1.11236
H          1.55425        1.31065       -2.99073
H          3.20612        1.86505       -3.27701
H          2.25698        2.55392       -1.95798
H          1.10500       -2.38480       -0.49122
H         -0.15349       -1.29810       -1.80118
H         -2.09177        3.25169        0.55203
H         -2.86429        3.05171        2.11597
H         -3.60983        2.34417        0.68684
H         -0.85241        1.53384        1.77732
H         -3.55581        0.17948        2.27258
H         -2.52360        0.96062        3.47247
H         -1.96563       -0.50428        2.67555
H          0.22724       -4.09082       -1.13521
H          0.50169       -3.95880        0.66375
H         -1.70826       -2.96090        0.93015
H         -1.98561       -3.06427       -0.87180
