42
669.log
C          5.69105        0.94761       -0.29168
O          4.45303        0.58082       -0.88866
C          3.42709        1.41505       -0.66783
O          3.52040        2.43137       -0.03667
C          2.16213        0.90100       -1.29144
P          1.48301       -0.58227       -0.37456
C          2.61338       -1.91570       -0.91840
Cl         2.16339       -0.25895        1.44535
Rh        -0.74535       -1.00363       -0.55218
Cl        -0.14829       -2.72618        0.98723
C         -2.69662        2.98080       -1.91551
O         -2.53170        2.46928       -0.59969
C         -3.41369        1.55427       -0.20075
O         -4.34228        1.17419       -0.86181
C         -3.06462        1.05909        1.17754
P         -1.33552        0.37223        1.14642
C         -1.29130       -0.28524        2.85585
Cl        -0.26225        2.01458        1.35347
C         -1.89422       -2.53039       -1.72950
C         -2.68175       -1.81351       -0.77086
H          5.99082        1.94238       -0.62567
H          5.59636        0.95445        0.79578
H          6.41542        0.20198       -0.60906
H          2.33149        0.57989       -2.31943
H          1.40615        1.68733       -1.26734
H          3.65073       -1.63729       -0.74344
H          2.36047       -2.80749       -0.34479
H          2.44922       -2.11054       -1.97717
H         -0.48732       -1.99131       -1.70786
H         -1.02445        0.08766       -1.57098
H         -2.47641        2.20110       -2.64746
H         -1.99315        3.80351       -2.01247
H         -3.72159        3.32662       -2.06136
H         -3.76127        0.27186        1.46839
H         -3.09785        1.88215        1.89463
H         -1.60859        0.47984        3.56371
H         -1.94262       -1.15541        2.91082
H         -0.27694       -0.60775        3.08394
H         -2.09938       -2.35400       -2.78132
H         -1.65619       -3.56537       -1.49914
H         -2.98807       -2.36381        0.11608
H         -3.44148       -1.13564       -1.14845
