46
688.log
C          3.83538       -2.20351        0.35255
C          4.14178       -0.87768        1.05033
C          3.71123        0.28853        0.21911
O          4.44154        1.12239       -0.23666
P          1.85658        0.43876       -0.19161
Br         2.11356       -0.42526       -2.20958
C          1.84767        2.22184       -0.69493
C          2.19181        3.17597        0.44200
Rh         0.19213       -0.52756        1.05952
Cl        -0.16890        1.54167        2.21043
C         -3.47581        3.57464        0.01834
C         -2.36248        2.53809       -0.02841
C         -2.87314        1.14134        0.06641
O         -3.96526        0.80129        0.42239
P         -1.59593       -0.19582       -0.35314
Br        -2.97228       -1.88450       -0.46285
C         -1.36834        0.10373       -2.16960
C         -2.65422        0.37811       -2.93932
C          0.15375       -1.49654        3.10028
C         -1.11550       -1.44692        2.45660
H          4.18059       -3.02904        0.96965
H          4.34033       -2.25575       -0.60944
H          2.76388       -2.32350        0.19309
H          3.59818       -0.82955        1.99984
H          5.21210       -0.78734        1.24901
H          2.56772        2.34111       -1.51247
H          0.84262        2.43955       -1.07477
H          3.21951        3.03208        0.76780
H          1.52803        3.02956        1.29043
H          2.08588        4.20182        0.09502
H          1.21241       -0.86550        2.15708
H          0.41784       -1.86478        0.37812
H         -4.07553        3.43636        0.91411
H         -3.05562        4.57687        0.02847
H         -4.12972        3.47725       -0.84620
H         -1.74671        2.64993       -0.92591
H         -1.69018        2.65804        0.83520
H         -0.66984        0.93965       -2.28055
H         -0.86997       -0.78665       -2.56993
H         -3.16778        1.26244       -2.56502
H         -2.41623        0.53920       -3.98888
H         -3.33778       -0.46626       -2.87582
H          0.63089       -2.46658        3.20656
H          0.31992       -0.82784        3.94032
H         -1.85000       -0.74357        2.84279
H         -1.54293       -2.38342        2.10616
