46
690.log
C          3.83544       -2.20390        0.34901
C          4.14178       -0.87921        1.04897
C          3.71116        0.28837        0.21970
O          4.44142        1.12309       -0.23458
P          1.85653        0.43910       -0.19094
Br         2.11372       -0.42158       -2.21031
C          1.84752        2.22298       -0.69137
C          2.19135        3.17531        0.44716
Rh         0.19215       -0.52949        1.05854
Cl        -0.16889        1.53766        2.21319
C         -3.47536        3.57489        0.02446
C         -2.36221        2.53823       -0.02405
C         -2.87309        1.14140        0.06826
O         -3.96533        0.80089        0.42344
P         -1.59600       -0.19522       -0.35343
Br        -2.97251       -1.88352       -0.46587
C         -1.36835        0.10725       -2.16940
C         -2.65420        0.38298       -2.93870
C          0.15397       -1.50223        3.09752
C         -1.11534       -1.45143        2.45406
H          4.18063       -3.03043        0.96480
H          4.34046       -2.25457       -0.61302
H          2.76396       -2.32367        0.18929
H          3.59820       -0.83268        1.99857
H          5.21209       -0.78914        1.24778
H          2.56771        2.34365       -1.50858
H          0.84252        2.44121       -1.07107
H          3.21899        3.03098        0.77293
H          1.52742        3.02749        1.29523
H          2.08541        4.20171        0.10181
H          1.21252       -0.86937        2.15540
H          0.41783       -1.86547        0.37469
H         -4.07510        3.43519        0.91998
H         -3.05500        4.57702        0.03629
H         -4.12928        3.47908       -0.84025
H         -1.74638        2.65151       -0.92134
H         -1.68990        2.65655        0.83978
H         -0.66981        0.94332       -2.27897
H         -0.87001       -0.78250       -2.57117
H         -3.16779        1.26663       -2.56285
H         -2.41616        0.54594       -3.98797
H         -3.33775       -0.46152       -2.87674
H          0.63115       -2.47245        3.20194
H          0.32021       -0.83509        3.93879
H         -1.84981       -0.74879        2.84161
H         -1.54280       -2.38727        2.10192
