44
71.log
C          4.63041       -1.56991        0.36711
O          3.42340       -0.96656       -0.09280
C          3.22491        0.30381        0.23400
O          4.00629        1.01401        0.80103
P          1.56871        0.84884       -0.44396
C          1.46979        2.47412        0.36835
O          2.01241        1.43636       -1.90482
C          2.14849        0.57270       -3.01831
Rh        -0.02502       -0.75479       -0.17883
Cl         0.96944       -0.36753        1.98491
C         -4.93991       -1.21978       -1.13301
O         -3.65794       -0.59917       -1.04641
C         -3.41708        0.12599        0.03520
O         -4.18982        0.31275        0.93644
P         -1.67699        0.79986       -0.03399
C         -1.87421        1.89087       -1.48768
O         -1.75290        1.96105        1.07326
C         -1.72432        1.68844        2.47720
C          0.09811       -2.95180        0.18341
C         -1.19416       -2.39087        0.45317
H          4.71496       -2.52380       -0.14784
H          5.48247       -0.92704        0.13864
H          4.57669       -1.72082        1.44680
H          2.37928        3.01687        0.11216
H          0.59209        3.01846        0.02719
H          1.41827        2.32764        1.44435
H          1.37798       -0.20646       -3.00051
H          2.03347        1.18601       -3.91230
H          3.13343        0.10027       -3.02522
H          1.00643       -1.87555       -0.37097
H         -0.46038       -0.94846       -1.61778
H         -5.72179       -0.46027       -1.19017
H         -5.11594       -1.84233       -0.25392
H         -4.92667       -1.82371       -2.03647
H         -0.91077        2.33461       -1.73354
H         -2.20758        1.28566       -2.32709
H         -2.59959        2.67074       -1.26202
H         -0.91184        1.00522        2.73094
H         -1.56481        2.64878        2.96602
H         -2.67657        1.26402        2.79579
H          0.18171       -3.64007       -0.65320
H          0.70172       -3.23883        1.04086
H         -1.48709       -2.30096        1.49700
H         -2.00947       -2.67586       -0.20590
