34
712.log
C          4.32611        0.02953        0.16929
C          3.09337       -0.86065        0.09017
P          1.59342        0.03952       -0.46467
O          2.20233        0.69029       -1.80232
C          1.65651        1.42818        0.66369
N          1.68202        2.33664        1.36028
Rh        -0.39585       -1.05899       -0.34005
Cl         0.18837       -0.80033        1.95536
C         -1.48043        2.34907        1.97665
C         -2.46936        1.68946        1.03004
P         -1.69440        0.78932       -0.36579
O         -2.99848        0.75404       -1.30680
C         -0.74001        2.09895       -1.13541
N         -0.00392        2.75953       -1.71820
C         -0.89004       -3.20561        0.06637
C         -2.02244       -2.32829        0.11353
H          4.17643        0.83111        0.88985
H          4.54321        0.47186       -0.80012
H          5.18633       -0.55937        0.48169
H          3.24416       -1.67221       -0.62998
H          2.86040       -1.30012        1.06320
H          1.61230        1.30250       -2.25772
H          0.33751       -2.41545       -0.33783
H         -0.61228       -1.20311       -1.84574
H         -2.01710        2.85637        2.77545
H         -0.82223        1.60790        2.42403
H         -0.86321        3.07893        1.45584
H         -3.14161        2.42098        0.56819
H         -3.07844        0.95172        1.56238
H         -2.93628        0.10157       -2.01064
H         -0.85011       -3.93373       -0.73873
H         -0.51834       -3.58313        1.01493
H         -2.43709       -2.11584        1.09582
H         -2.77782       -2.44390       -0.66035
