44
713.log
C          3.21123        3.64616       -0.40123
C          2.24305        2.50418       -0.11895
C          2.97543        1.21976        0.24371
P          1.78357       -0.12751        0.58618
F          1.17998        0.51398        1.96548
O          2.84088       -1.13078        1.22789
C          2.51227       -2.46315        1.61018
Rh         0.18273       -0.83362       -0.86410
Cl        -0.69227       -2.08267        0.96680
C         -4.03930        0.22917        2.07569
C         -3.16873        1.45428        1.82885
C         -1.71190        1.06763        1.57794
P         -1.33773        0.70113       -0.18011
F         -2.82736        0.34264       -0.74632
O         -1.29349        2.23366       -0.65798
C         -1.18971        2.56051       -2.03352
C         -0.02085       -2.64603       -2.16565
C         -1.15970       -1.77389       -2.17100
H          2.66737        4.55239       -0.65594
H          3.86710        3.39350       -1.23145
H          3.82677        3.84935        0.47222
H          1.57596        2.78148        0.70065
H          1.62343        2.32026       -0.99983
H          3.61815        0.89782       -0.57613
H          3.58555        1.34601        1.14072
H          2.06355       -3.01031        0.77810
H          1.81101       -2.46511        2.44483
H          3.44867       -2.93609        1.90376
H          1.06343       -2.01283       -1.33630
H          0.73371        0.00756       -2.00745
H         -3.70736       -0.29532        2.96908
H         -3.97911       -0.46016        1.23844
H         -5.07851        0.52060        2.21110
H         -3.21101        2.10611        2.70473
H         -3.55182        2.02041        0.97731
H         -1.43784        0.20157        2.17901
H         -1.03635        1.88709        1.83133
H         -2.15667        2.44014       -2.52558
H         -0.87501        3.60217       -2.08918
H         -0.45575        1.92093       -2.53266
H          0.54933       -2.73741       -3.08601
H         -0.12086       -3.58230       -1.62272
H         -2.04715       -2.11681       -1.64617
H         -1.38195       -1.24114       -3.09187
