44
722.log
C          1.29771       -3.05835        1.11462
P          1.28324       -1.29924        0.60560
C          1.38234       -0.47361        2.23676
C          3.07816       -1.25395        0.05119
C          3.50990        0.11485       -0.30832
O          3.52698        0.63887       -1.39168
O          3.91151        0.77424        0.79789
O          4.31597        2.09308        0.52928
Rh        -0.27464       -0.75852       -0.93812
Cl        -1.56463       -1.56955        0.96334
C          1.03324        2.47643       -0.29471
P         -0.53990        1.52690       -0.36139
C         -1.46310        2.71771       -1.41866
C         -1.19803        2.02966        1.30261
C         -2.43036        1.22622        1.62906
O         -2.80175        0.88964        2.71196
O         -3.04160        0.95433        0.46199
O         -4.11141        0.04884        0.56340
C         -2.12766       -1.48853       -2.13868
C         -1.71930       -0.31110       -2.69778
H          2.09656       -3.23087        1.83556
H          1.44574       -3.68700        0.23772
H          0.34013       -3.30767        1.56676
H          0.40473       -0.54434        2.71339
H          1.66178        0.57237        2.13471
H          2.12461       -0.98239        2.85101
H          3.14467       -1.89156       -0.83119
H          3.69334       -1.63430        0.86763
H          4.24622        2.14165       -0.45481
H          0.04975       -2.15561       -1.39397
H          0.72798       -0.34973       -1.98209
H          1.54277        2.36725       -1.25043
H          1.67657        2.09008        0.49092
H          0.83955        3.53115       -0.10282
H         -2.52721        2.49449       -1.42102
H         -1.31181        3.72809       -1.03935
H         -1.07335        2.65872       -2.43414
H         -1.45488        3.09156        1.28275
H         -0.46122        1.86294        2.09026
H         -3.67243       -0.76401        0.91459
H         -1.88983       -2.44010       -2.59930
H         -2.95717       -1.50164       -1.44111
H         -2.27214        0.59157       -2.48381
H         -1.14186       -0.30777       -3.61490
