44
726.log
C          3.43670        3.21789       -1.89435
C          3.06271        1.81736       -1.42699
C          2.45445        1.84437       -0.02828
P          1.83326        0.17504        0.44830
C          3.37571       -0.71833        0.86292
C          1.30667        0.57489        2.09388
N          0.92710        0.82926        3.14522
Rh         0.19156       -0.94382       -0.65461
Cl         0.43328       -2.32387        1.29116
C         -5.21152        1.69514       -0.95520
C         -4.08896        1.36368        0.02170
C         -3.04645        0.46638       -0.64084
P         -1.50538        0.18314        0.33230
C         -2.11197       -0.30556        1.98358
C         -1.08587        1.87884        0.65346
N         -0.75155        2.96611        0.79891
C          0.23836       -2.78006       -1.92548
C         -1.08427       -2.34454       -1.57995
H          3.86534        3.18490       -2.89312
H          2.55709        3.85681       -1.91695
H          4.16645        3.66324       -1.22129
H          3.95269        1.18272       -1.43293
H          2.33547        1.38070       -2.11808
H          1.60391        2.53265       -0.00444
H          3.18576        2.17694        0.71567
H          3.10791       -1.65903        1.34382
H          3.98839       -0.11665        1.53528
H          3.92430       -0.92957       -0.05557
H          1.25041       -1.79920       -1.38141
H          0.11550       -0.01590       -1.85783
H         -4.82195        2.22818       -1.81948
H         -5.95825        2.32198       -0.47429
H         -5.69806        0.78585       -1.30219
H         -4.51482        0.86363        0.89345
H         -3.61600        2.28962        0.35881
H         -2.72377        0.90265       -1.59233
H         -3.46984       -0.51989       -0.85930
H         -2.61669       -1.26752        1.88369
H         -1.25977       -0.42976        2.65168
H         -2.78915        0.44587        2.38688
H          0.53254       -2.71260       -2.96917
H          0.60974       -3.67126       -1.42665
H         -1.62396       -2.95072       -0.85613
H         -1.70941       -1.96652       -2.38509
