48
739.log
C          3.10770        2.46435       -1.50783
C          3.75427        1.11692       -1.21867
C          3.45194        0.64308        0.19698
P          1.65370        0.34080        0.48179
C          1.78551       -0.59961        2.09405
O          2.80471       -1.10291        2.49193
O          1.00498        1.73769        1.00357
C          1.56511        2.50466        2.06524
Rh         0.25703       -0.78331       -0.90549
Cl         0.43746       -2.36099        0.95098
C         -3.10128        3.23017       -2.06344
C         -2.68197        1.82527       -1.65079
C         -2.11058        1.80189       -0.23708
P         -1.50755        0.13400        0.18703
C         -2.68789        1.15738        2.70798
O         -3.50396        0.39592        2.90513
O         -2.94035       -0.59461        0.22517
C         -3.09186       -1.96865        0.58300
C          0.55232       -2.40068       -2.41003
C         -0.82588       -2.10536       -2.12606
H          3.32399        2.78243       -2.52493
H          2.02748        2.38401       -1.39233
H          3.47936        3.22559       -0.82429
H          3.36978        0.38002       -1.92949
H          4.83677        1.18430       -1.35501
H          3.93617       -0.31740        0.39960
H          3.80809        1.36243        0.94091
H          0.88759       -0.48426        2.73595
H          2.12267        1.88213        2.76882
H          2.22359        3.27663        1.66172
H          0.73144        2.97806        2.58490
H          1.44131       -1.46835       -1.62199
H          0.21838        0.27181       -1.98175
H         -3.50871        3.22589       -3.07147
H         -2.24793        3.90422       -2.04033
H         -3.86158        3.61628       -1.38776
H         -1.92370        1.44809       -2.34218
H         -3.54168        1.15432       -1.69928
H         -2.86624        2.09728        0.49620
H         -1.25447        2.47429       -0.15611
H         -1.26759        0.33005        1.56437
H         -2.13028       -2.45088        0.76744
H         -3.69607       -2.02166        1.49003
H         -3.61483       -2.47823       -0.22746
H          0.92659       -2.15100       -3.39912
H          0.94386       -3.34070       -2.02910
H         -1.37435       -2.85842       -1.56712
H         -1.41261       -1.64824       -2.91862
