38
74.log
C          2.11268        2.29943       -0.77303
P          1.89603        0.82683        0.29235
O          2.07289        1.50723        1.72072
C          3.57638        0.03129        0.08817
C          3.46359       -0.92243       -1.05140
O          3.34537       -2.11399       -0.95798
O          3.44701       -0.28504       -2.23103
Rh         0.10717       -0.59722        0.17445
Cl        -0.33610        0.00635        2.51999
C         -1.46660        1.93577       -1.89201
P         -1.36467        1.07800       -0.28737
O         -1.09558        2.34596        0.65838
C         -3.18050        0.82397        0.07314
C         -3.77933       -0.22327       -0.80669
O         -3.71654       -0.24182       -2.00798
O         -4.41833       -1.16820       -0.10871
C         -0.11437       -2.76772        0.61662
C         -1.33232       -2.13303        0.22604
H          1.21401        2.90985       -0.71553
H          2.95868        2.86843       -0.39050
H          2.29366        1.99503       -1.79957
H          1.41621        1.11262        2.34121
H          3.80798       -0.50869        1.00707
H          4.31679        0.80653       -0.10641
H          3.29797       -0.91978       -2.94987
H          1.06396       -1.72185        0.58100
H          0.35857       -0.88118       -1.28373
H         -1.94934        2.90024       -1.74438
H         -0.46869        2.07703       -2.29787
H         -2.04643        1.32160       -2.57541
H         -0.85438        2.02345        1.54536
H         -3.65962        1.78798       -0.11581
H         -3.30271        0.55107        1.12313
H         -4.78779       -1.84294       -0.70052
H          0.34180       -3.47317       -0.07032
H         -0.00385       -3.04677        1.66115
H         -2.08457       -1.98453        0.99686
H         -1.74718       -2.39757       -0.74289
