48
740.log
C          3.74524       -1.64487       -0.06919
C          3.45937       -0.41437       -0.91954
P          1.85989        0.42791       -0.53398
C          2.11077        1.91938       -1.61030
C          0.99673        2.94703       -1.49690
C          2.34459        1.15342        1.10459
O          3.40334        0.99043        1.64217
O          1.39085        1.95034        1.56790
Rh        -0.00119       -0.89470       -0.60633
Cl         0.75316       -1.34530        1.64267
C         -2.76327       -1.28157        2.30055
C         -3.16104       -0.49198        1.05431
P         -1.77495        0.36142        0.17042
C         -1.68486        1.97928        1.06843
C         -1.43270        1.78371        2.55957
C         -2.78815        0.90148       -1.27899
O         -3.72142        0.29641       -1.73210
O         -2.32905        2.03905       -1.79959
C         -0.07967       -3.09139       -1.11290
C         -1.33283       -2.56786       -0.69539
H          4.69328       -2.08995       -0.36613
H          3.80329       -1.36886        0.98034
H          2.96476       -2.39527       -0.18001
H          3.42310       -0.68210       -1.98169
H          4.25498        0.32229       -0.76907
H          2.15445        1.53150       -2.63238
H          3.08079        2.36539       -1.36881
H          0.03190        2.46856       -1.65715
H          0.99838        3.40914       -0.51218
H          1.12649        3.72983       -2.24212
H          1.61569        2.29068        2.45162
H          0.97309       -1.92413       -1.17108
H         -0.34984       -0.51092       -2.03318
H         -1.73878       -1.64136        2.22779
H         -2.82906       -0.67129        3.19656
H         -3.42303       -2.13713        2.43237
H         -3.91476        0.26590        1.29169
H         -3.59573       -1.15771        0.30272
H         -2.62123        2.52069        0.90212
H         -0.87056        2.54904        0.62064
H         -2.34531        1.49477        3.07313
H         -1.07646        2.71066        3.00496
H         -0.68722        1.00769        2.71759
H         -2.81659        2.27802       -2.60777
H          0.03673       -3.38300       -2.15255
H          0.45372       -3.72922       -0.41317
H         -1.68516       -2.86354        0.28652
H         -2.11627       -2.46111       -1.44030
