46
749.log
C          4.05001       -0.68228        1.36148
C          3.90846        0.40422        0.30258
N          2.84054        1.35029        0.61450
P          1.38969        1.26250       -0.25205
C          1.90162        2.16866       -1.76574
C          0.52621        2.57761        0.67853
Rh         0.31984       -0.74486       -0.53430
Cl         0.25573       -0.70472        1.88041
C         -4.25548        0.18358        2.03034
C         -3.58451        1.23090        1.14705
N         -2.23546        0.86763        0.75744
P         -1.77739        0.11345       -0.65902
C         -3.13944       -1.04088       -1.14219
C         -2.11965        1.41732       -1.91355
C          1.08816       -2.83906       -0.44649
C         -0.34027       -2.74674       -0.55727
H          4.76086       -1.44109        1.04306
H          3.08677       -1.15421        1.54499
H          4.39785       -0.25157        2.29859
H          3.70398       -0.04633       -0.67602
H          4.84690        0.96695        0.22193
H          2.63134        1.31979        1.60968
H          1.03075        2.35578       -2.38914
H          2.38071        3.10533       -1.48744
H          2.60053        1.55471       -2.33042
H          1.19349        3.43404        0.76788
H          0.27645        2.19363        1.66595
H         -0.39364        2.85911        0.17295
H          1.68552       -1.45466       -0.48916
H          0.41194       -0.70961       -2.04609
H         -4.35866       -0.75884        1.49854
H         -5.24203        0.52322        2.33710
H         -3.65421        0.00978        2.92009
H         -4.17973        1.40194        0.24678
H         -3.53094        2.17991        1.69547
H         -1.68046        0.51834        1.53854
H         -4.09524       -0.51775       -1.15060
H         -2.93158       -1.42752       -2.13732
H         -3.18229       -1.87406       -0.44352
H         -1.43275        2.24973       -1.78107
H         -1.97139        0.99411       -2.90445
H         -3.14376        1.77677       -1.82262
H          1.63248       -3.25098       -1.29230
H          1.49028       -3.15601        0.51285
H         -0.91382       -3.00946        0.32856
H         -0.79014       -3.09682       -1.48241
