42
750.log
C          1.57221       -1.84611        2.26764
P          1.33082       -0.49750        1.03543
N          1.17048        0.90509        1.93568
C          3.09598       -0.30262        0.51726
C          3.24486        0.90946       -0.39868
C          4.60805        1.07161       -0.82557
N          5.69892        1.18037       -1.15125
Rh        -0.24630       -0.94366       -0.55773
Cl        -1.62288       -1.39941        1.34906
C         -0.17080        2.65992       -0.56461
P         -1.10014        1.14187       -0.99666
N         -1.31402        1.52385       -2.63850
C         -2.83503        1.59951       -0.51803
C         -3.23796        1.33239        0.93234
C         -2.26491        1.84398        1.84926
N         -1.45822        2.23110        2.56453
C         -0.92215       -2.91537       -1.35718
C         -1.70121       -1.80907       -1.82709
H          2.28906       -1.52731        3.02566
H          0.61511       -2.06381        2.73964
H          1.93681       -2.74524        1.77429
H          1.74264        0.90904        2.77641
H          0.20934        1.13540        2.18494
H          3.71800       -0.18257        1.40941
H          3.40632       -1.21202       -0.00290
H          2.60772        0.77650       -1.27974
H          2.92437        1.81068        0.13205
H          0.23139       -2.40194       -0.46821
H          0.70434       -0.72686       -1.72283
H         -0.06994        2.77376        0.50989
H         -0.69354        3.51449       -0.99211
H          0.82193        2.58669       -1.00501
H         -1.86854        0.81768       -3.11376
H         -0.41343        1.56809       -3.10667
H         -2.94342        2.65908       -0.76891
H         -3.49425        1.02714       -1.17781
H         -4.21395        1.77608        1.14935
H         -3.28650        0.25184        1.11420
H         -0.30297       -3.43962       -2.07972
H         -1.38303       -3.57001       -0.62273
H         -2.71002       -1.71872       -1.43091
H         -1.62962       -1.57434       -2.88731
