48
757.log
C          5.05352       -0.08985        0.18369
C          3.94104        0.70959       -0.42755
O          3.50104        0.50010       -1.53259
C          3.40688        1.82907        0.44487
C          2.19568        2.50335       -0.18688
P          0.62390        1.53186       -0.11430
C         -0.51849        2.80409       -0.77849
C          0.29189        1.74848        1.61759
N          0.04191        1.84144        2.73280
Rh         0.38237       -0.66456       -0.65114
Cl         1.93285       -0.98414        1.15342
C         -5.46218        1.37857       -1.38463
C         -4.21335        1.44223       -0.55175
O         -3.77687        2.46884       -0.09227
C         -3.51159        0.11380       -0.35925
C         -2.75182        0.03961        0.96376
P         -1.30045       -1.09533        0.82727
C         -0.95329       -1.47543        2.58119
C         -2.23480       -2.55992        0.44310
N         -2.83744       -3.49778        0.17675
C          1.54701       -2.10100       -1.90123
C          0.50660       -2.72399       -1.15931
H          5.57943       -0.65640       -0.58039
H          4.60313       -0.78666        0.88991
H          5.74407        0.54780        0.72825
H          4.20884        2.56140        0.57809
H          3.16394        1.41921        1.42749
H          1.99214        3.45910        0.30844
H          2.39284        2.68768       -1.24912
H         -1.55224        2.55420       -0.54275
H         -0.28740        3.78561       -0.36515
H         -0.40284        2.82655       -1.86195
H          1.49892       -0.51719       -1.67511
H         -0.59688       -0.40242       -1.78101
H         -6.24096        0.87660       -0.81272
H         -5.79966        2.37929       -1.64055
H         -5.28341        0.79998       -2.28767
H         -2.79125        0.03546       -1.18725
H         -4.21236       -0.71518       -0.45896
H         -3.40626       -0.30510        1.76931
H         -2.37810        1.03390        1.23371
H         -1.86377       -1.79970        3.08543
H         -0.19587       -2.25794        2.63027
H         -0.55320       -0.57972        3.05779
H          1.44596       -2.04423       -2.98023
H          2.56923       -2.23808       -1.56161
H          0.79155       -3.32956       -0.30168
H         -0.34970       -3.11560       -1.70257
