42
760.log
C         -3.18653        2.17653        1.82175
C         -2.20518        2.71599        0.79258
C         -2.23278        1.90197       -0.49658
P         -1.78820        0.12093       -0.20323
O         -3.16750       -0.51290        0.24948
C         -1.82158       -0.54614       -1.94153
O         -2.86246       -1.03312       -2.31834
Rh         0.04164       -0.64799        0.87851
Cl        -0.56810       -2.44088       -0.73183
C          2.53099        2.99602        0.34587
C          1.40750        2.91936       -0.67608
C          1.54559        1.72293       -1.60539
P          1.57477        0.07605       -0.75026
O          1.55746       -0.84654       -2.06180
C          3.42776        0.01731       -0.55103
O          4.09498        0.23624        0.41300
C          0.87981       -2.09380        2.37555
C          1.91540       -1.67491        1.57046
H         -3.16988        2.78995        2.71916
H         -2.90931        1.15897        2.09262
H         -4.19916        2.16803        1.42494
H         -2.43738        3.75894        0.56058
H         -1.20045        2.67845        1.22097
H         -1.53964        2.31883       -1.22972
H         -3.23901        1.89931       -0.92740
H         -3.54596       -0.97751       -0.52962
H         -0.96438       -0.39021       -2.60900
H         -1.01600       -1.04049        1.86892
H          0.26920        0.52640        1.78838
H          2.42428        3.88820        0.95835
H          2.49746        2.12659        1.00095
H          3.50346        3.02801       -0.14101
H          1.38886        3.83243       -1.27756
H          0.45921        2.84742       -0.14240
H          2.46184        1.78973       -2.20202
H          0.70101        1.67694       -2.30117
H          0.96678       -1.61874       -1.91694
H          3.88041       -0.28043       -1.52604
H          0.78353       -1.70272        3.38194
H          0.41240       -3.05864        2.20249
H          2.27739       -2.32477        0.77705
H          2.63502       -0.95582        1.94455
