46
763.log
C          1.95358        2.92387        0.75851
N          1.18459        1.69415        0.67585
P          1.57847        0.30660       -0.16897
F          2.22845        1.08546       -1.44806
C          3.17581       -0.46125        0.43235
C          3.73914       -1.29781       -0.71149
C          4.19103        0.55829        0.92717
Rh        -0.19012       -1.09217       -0.35799
Cl         0.04155       -0.86006        2.03659
C         -0.89098        1.88193       -2.63805
N         -1.41069        2.01311       -1.28145
P         -1.73734        0.56356       -0.48889
F         -2.98738        0.14088       -1.43471
C         -2.78173        1.22631        0.89445
C         -3.49127        0.05926        1.56762
C         -2.00999        2.05160        1.91153
C         -0.40756       -3.31424       -0.15668
C         -1.65112       -2.60291       -0.21448
H          2.52179        3.05337       -0.15988
H          1.26005        3.76311        0.85569
H          2.63999        2.95162        1.60754
H          0.70053        1.44944        1.53209
H          2.88575       -1.11876        1.25880
H          4.11793       -0.64899       -1.49894
H          4.55312       -1.92875       -0.35927
H          2.96516       -1.93523       -1.14119
H          5.13266        0.05800        1.15045
H          3.84566        1.04333        1.83702
H          4.38114        1.31333        0.16635
H          0.72561       -2.33229       -0.29674
H         -0.19759       -1.18250       -1.86696
H         -1.58463        1.26544       -3.20715
H         -0.84290        2.87175       -3.09075
H          0.09923        1.41921       -2.67605
H         -0.76965        2.56332       -0.71843
H         -3.50893        1.86026        0.37079
H         -4.00812       -0.55274        0.82980
H         -4.22054        0.42223        2.28994
H         -2.76546       -0.55644        2.09568
H         -1.47542        2.87271        1.43841
H         -2.70191        2.47201        2.64022
H         -1.30583        1.41793        2.44625
H         -0.14987       -3.95011       -0.99909
H         -0.12334       -3.73712        0.80376
H         -2.22467       -2.54723        0.70624
H         -2.26593       -2.72879       -1.10091
