50
773.log
C          1.66986       -3.33210       -1.33165
C          2.48630       -2.09547       -0.97847
C          2.34084       -0.89463       -1.89370
O          2.82294        0.16948       -1.48618
C          2.28181       -1.63105        0.44135
O          2.07234       -2.38260        1.36053
P          2.26547        0.21315        0.79065
C          4.00013        0.81732        0.86478
C          2.08416        0.06316        2.62806
Rh         0.42011        1.30217       -0.07198
Cl         0.15402       -0.47948       -1.73000
C         -3.66942       -0.24230       -2.06147
C         -3.20079       -0.81198       -0.72496
C         -4.31792       -1.54079       -0.01975
O         -4.16940       -2.42124        0.78039
C         -2.82937        0.30242        0.25164
O         -3.55027        1.24452        0.45358
P         -1.18772        0.19447        1.13060
C         -1.74673        0.86441        2.73823
C         -1.09486       -1.60576        1.47651
C          0.24425        2.88849       -1.62739
C         -1.01415        2.51309       -1.07613
H          0.61734       -3.07628       -1.42275
H          1.78334       -4.08155       -0.55181
H          2.00564       -3.74796       -2.27821
H          3.55678       -2.34804       -1.04146
H          2.26486       -1.10570       -2.96659
H          4.62921        0.02848        1.27765
H          4.01333        1.67432        1.53651
H          4.35764        1.10909       -0.11649
H          2.88877       -0.54140        3.04622
H          1.13253       -0.38710        2.89543
H          2.12424        1.06631        3.05101
H          1.42386        2.08247       -0.91014
H          0.57536        2.34505        0.99989
H         -2.81462        0.12040       -2.62695
H         -4.36386        0.57943       -1.90000
H         -4.16078       -1.01508       -2.64821
H         -2.34247       -1.47474       -0.85626
H         -5.32103       -1.15884       -0.27999
H         -2.16608        1.85418        2.56368
H         -0.89664        0.95270        3.41187
H         -2.50505        0.21488        3.17488
H         -0.41646       -1.77242        2.31152
H         -0.69157       -2.13747        0.61640
H         -2.08039       -1.99947        1.72437
H          0.63370        3.87278       -1.38633
H          0.46977        2.56834       -2.64114
H         -1.68920        1.94766       -1.71129
H         -1.52701        3.21939       -0.43034
