34
781.log
C          0.65180        1.93571        1.83211
P          1.19030        0.75793        0.53102
C          2.99467        0.73228        0.91998
Br         3.98790       -0.06090       -0.54270
N          1.23300        2.07637       -0.75885
O          0.25839        2.06372       -1.47514
O          2.13067        2.88165       -0.77362
Rh         0.17756       -1.13351       -0.20511
Cl         0.67918       -1.18857        2.17889
C         -2.75540       -0.26633        1.68589
P         -1.98190       -0.50180        0.05056
C         -2.67971        0.86142       -0.98822
Br        -2.53388        2.52336       -0.02561
N         -3.10841       -1.77797       -0.54171
O         -3.49210       -1.68009       -1.68546
O         -3.36223       -2.67730        0.22451
C          1.06533       -3.17196       -0.56255
C         -0.35147       -3.18208       -0.47880
H         -0.37798        2.24966        1.67042
H          0.73470        1.44877        2.80193
H          1.29867        2.81428        1.79805
H          3.36768        1.75092        1.04674
H          3.17727        0.13256        1.81148
H          1.56880       -1.67598       -0.49921
H          0.06014       -0.86121       -1.68419
H         -2.72759       -1.22947        2.19891
H         -3.78641        0.07949        1.59483
H         -2.17314        0.44936        2.26485
H         -3.73597        0.70484       -1.21626
H         -2.09790        0.97352       -1.90398
H          1.52574       -3.37992       -1.52290
H          1.62926       -3.54296        0.28897
H         -0.80790       -3.58198        0.42451
H         -0.90967       -3.39335       -1.38692
