46
782.log
C          5.13147        0.94879        0.04631
C          4.06767        0.08106        0.70975
C          3.33392       -0.78136       -0.28463
O          3.82310       -1.24099       -1.28268
P          1.54213       -1.10836        0.12275
C          1.19448       -2.40433       -1.11112
C          1.81500       -2.10677        1.64860
Rh         0.27196        0.79243        0.16583
Cl        -0.72759        0.18745       -1.93241
C         -4.74164       -1.65830       -0.71672
C         -3.34477       -1.19862       -1.13505
C         -2.98014        0.05393       -0.38349
O         -3.54056        1.11067       -0.53235
P         -1.69020       -0.01320        0.97884
C         -2.59570        0.94587        2.24919
C         -1.86031       -1.70615        1.68067
C          0.63983        2.83397       -0.68407
C         -0.61480        2.70453       -0.00997
H          5.80776        0.32867       -0.53658
H          4.66640        1.66823       -0.62357
H          5.70425        1.48900        0.79581
H          3.33889        0.68831        1.25419
H          4.54299       -0.59928        1.42355
H          1.97079       -3.16841       -1.07908
H          0.21530       -2.84161       -0.92030
H          1.17750       -1.93362       -2.09367
H          0.89469       -2.62884        1.90156
H          2.08078       -1.44726        2.47181
H          2.60863       -2.83467        1.48163
H          1.43098        1.51306       -0.55389
H          0.81624        1.16005        1.53662
H         -5.45926       -0.85899       -0.88411
H         -5.03956       -2.52393       -1.30332
H         -4.76887       -1.92941        0.33710
H         -2.60243       -1.97706       -0.95917
H         -3.35079       -0.95868       -2.19965
H         -3.50118        0.41879        2.54988
H         -1.94941        1.09893        3.11184
H         -2.86444        1.91023        1.82105
H         -1.40799       -2.44404        1.02092
H         -2.91068       -1.94810        1.83837
H         -1.34006       -1.72093        2.63807
H          1.39112        3.47821       -0.23522
H          0.61947        2.88045       -1.76955
H         -1.51288        2.67904       -0.62126
H         -0.73649        3.24586        0.92494
