38
783.log
C          2.82664        1.50684        1.72226
P          1.93809        1.32017        0.13323
C          3.12228        2.15244       -0.98429
C          0.50242        2.48378        0.15475
O         -0.53299        1.85301       -0.55886
Cl        -2.10790        3.23756       -0.18497
Rh         0.90248       -0.51320       -0.68122
Cl         2.42364       -2.08119        0.28075
C         -0.85048       -2.63556        1.64950
P         -0.52306       -0.90492        1.15031
C         -0.08866       -0.21340        2.79518
C         -2.26027       -0.24258        1.05752
O         -2.79078       -0.90845       -0.04483
Cl        -4.35566       -0.36413       -0.51014
C          0.35072       -1.68924       -2.56264
C         -0.33934       -2.22834       -1.50677
H          3.69768        0.85266        1.68309
H          3.14614        2.54317        1.83431
H          2.20899        1.21633        2.56567
H          2.65612        2.30008       -1.95755
H          3.99684        1.51381       -1.10425
H          3.42055        3.11353       -0.56459
H          0.17366        2.68185        1.18291
H          0.76444        3.43859       -0.32100
H          1.86421       -0.25147       -1.81240
H         -0.03637        0.79153       -1.05891
H         -1.33469       -2.65846        2.62508
H          0.10428       -3.15766        1.70000
H         -1.48966       -3.12090        0.91593
H          0.88363       -0.61008        3.08367
H         -0.05060        0.87311        2.74761
H         -0.83310       -0.51166        3.53296
H         -2.80821       -0.48170        1.98131
H         -2.23137        0.84416        0.90877
H         -0.13703       -1.00030       -3.24601
H          1.22668       -2.19648       -2.95134
H          0.01822       -3.14837       -1.05805
H         -1.38844       -1.99490       -1.36481
