46
787.log
C         -1.77432        0.47916       -2.30240
P         -1.78422        0.77132       -0.49058
C         -1.98690        2.63596       -0.39643
C         -0.66189        3.31488       -0.59710
O         -0.03011        3.82545        0.28226
O         -0.19122        3.29744       -1.85430
C         -3.61273        0.46689       -0.19776
N         -3.87609       -0.97148       -0.12697
O         -3.74702       -1.48805        0.95512
O         -4.22693       -1.51324       -1.14343
Rh        -0.42846       -0.35145        0.93336
Cl        -1.05418       -2.16082       -0.53014
C          1.90737        0.56262       -1.74305
P          1.62313       -0.27287       -0.13436
C          3.10452        0.18301        0.87043
C          2.86857        1.57386        1.40274
O          3.32269        2.04114        2.40569
O          2.04981        2.21134        0.56877
C          2.17203       -2.00612       -0.63399
N          3.30458       -1.92255       -1.52490
O          3.09565       -1.98021       -2.71474
O          4.39569       -1.74875       -1.02262
C         -0.90857       -1.59663        2.74171
C          0.44952       -1.68574        2.35418
H         -2.49753        1.11712       -2.81230
H         -2.04551       -0.56624       -2.45693
H         -0.77615        0.62127       -2.71038
H         -2.33831        2.87277        0.60931
H         -2.71815        2.97156       -1.13670
H         -0.80898        2.89865       -2.48251
H         -4.19502        0.88777       -1.02148
H         -3.88193        0.91608        0.76180
H         -1.67429       -0.51684        1.78419
H         -0.08959        0.84198        1.79564
H          1.45265        1.54945       -1.73443
H          1.46942       -0.04761       -2.53403
H          2.97485        0.67549       -1.93141
H          4.01112        0.17004        0.25789
H          3.25026       -0.51240        1.69938
H          1.77091        3.09835        0.86723
H          2.45767       -2.54528        0.27101
H          1.32790       -2.48807       -1.13636
H         -1.15222       -1.07361        3.66052
H         -1.57072       -2.42449        2.50741
H          0.76528       -2.61233        1.88330
H          1.19283       -1.23160        3.00325
