40
788.log
C          1.50131        2.03086        1.19315
P          1.74465        0.55419        0.13533
C          3.13497       -0.22399        1.08534
C          3.67549       -1.29413        0.30093
N          4.07163       -2.13625       -0.36410
C          2.71483        1.26650       -1.29483
C          3.79243        2.08010       -0.82671
N          4.63383        2.72182       -0.39109
Rh         0.05343       -0.88229       -0.35834
Cl         0.00157       -0.85742        2.04091
C         -1.38072        2.14646       -1.45592
P         -1.64868        0.61115       -0.48412
C         -3.25850        0.10801       -1.27490
C         -3.95218       -0.82759       -0.43746
N         -4.49928       -1.55457        0.25433
C         -2.30515        1.27015        1.12512
C         -3.33264        2.23582        0.89188
N         -4.13956        3.00779        0.64207
C          0.03577       -3.13436       -0.34279
C         -1.25741       -2.55721       -0.46548
H          1.12435        1.68829        2.15669
H          2.45041        2.55051        1.32991
H          0.77871        2.71341        0.74727
H          2.71021       -0.62017        2.01437
H          3.90954        0.51788        1.30639
H          2.03783        1.85224       -1.92323
H          3.09856        0.42434       -1.88027
H          1.12385       -1.97409       -0.34701
H          0.19337       -0.82605       -1.87003
H         -0.47948        2.65403       -1.11543
H         -1.23900        1.86289       -2.49886
H         -2.23192        2.82215       -1.36971
H         -3.03756       -0.35145       -2.24312
H         -3.88610        0.99466       -1.41843
H         -2.69404        0.41885        1.69557
H         -1.47859        1.70801        1.69214
H          0.45119       -3.65909       -1.19706
H          0.31117       -3.56563        0.61525
H         -1.91193       -2.60620        0.40103
H         -1.77672       -2.68067       -1.41205
