50
794.log
C          0.84486        2.25349       -2.30001
N          1.60679        2.09910       -1.07037
P          1.76185        0.65906       -0.23687
C          3.59037        0.31959       -0.31307
C          4.01831       -0.83134        0.58668
C          3.92460        0.03271       -1.77421
N          1.70767        1.44606        1.41444
O          0.64502        1.98445        1.66222
O          2.70442        1.52594        2.08579
Rh         0.25474       -1.01910       -0.40231
Cl         0.90428       -1.16949        1.90993
C         -2.68731        2.76423       -0.15964
N         -1.58269        1.81606       -0.18351
P         -1.66006        0.17276       -0.02202
C         -2.83101       -0.31479        1.36605
C         -4.29573        0.07228        1.18744
C         -2.23352        0.29869        2.62885
N         -2.73792       -0.17905       -1.42197
O         -3.32521       -1.24078       -1.39820
O         -2.78311        0.62902       -2.32012
C          0.51329       -3.24590       -0.61219
C         -0.81836       -2.84170       -0.30069
H          0.39332        3.24562       -2.32190
H          1.46260        2.12693       -3.19213
H          0.05009        1.50886       -2.31354
H          2.41795        2.71045       -1.03318
H          4.09324        1.23950        0.01699
H          3.77096       -0.62368        1.62451
H          3.52370       -1.75555        0.29194
H          5.09405       -0.97921        0.51061
H          4.97857       -0.21676       -1.87834
H          3.71308        0.89185       -2.40904
H          3.33455       -0.81031       -2.13598
H          1.39360       -1.99022       -0.73309
H         -0.00162       -0.88600       -1.88938
H         -2.36104        3.67036       -0.67085
H         -2.99795        3.03465        0.85252
H         -3.53603        2.36055       -0.70756
H         -0.74576        2.18503        0.26056
H         -2.76787       -1.40573        1.43292
H         -4.42780        1.14930        1.13611
H         -4.85575       -0.29117        2.04806
H         -4.72767       -0.38470        0.30001
H         -2.78146       -0.03613        3.50735
H         -2.27291        1.38604        2.59232
H         -1.19215        0.00371        2.74481
H          0.70510       -3.64679       -1.60322
H          1.08516       -3.72934        0.17549
H         -1.16414       -3.04148        0.71034
H         -1.58584       -2.96011       -1.06058
