46
799.log
C          3.45369       -1.80078        0.60222
O          3.33182       -0.66720       -0.25112
P          1.96575        0.15060       -0.50349
C          2.60945        1.04720       -1.96244
C          2.06450        1.48364        0.83631
C          3.49652        1.78202        1.28147
C          1.45029        2.66481        0.31245
N          1.01423        3.62769       -0.12893
Rh         0.02899       -1.07501       -0.55273
Cl         0.36188       -1.25005        1.82537
C         -1.47591        1.55417        2.13208
O         -1.39264        1.81011        0.73175
P         -1.41187        0.70386       -0.43207
C         -1.29687        1.89555       -1.80993
C         -3.25609        0.28722       -0.53355
C         -4.15515        1.51597       -0.67772
C         -3.58975       -0.41719        0.67341
N         -3.88334       -0.94295        1.64661
C         -0.27715       -3.29896       -0.57086
C         -1.48928       -2.55517       -0.46553
H          3.36926       -2.71540        0.01047
H          4.44736       -1.75699        1.04913
H          2.69720       -1.80382        1.38932
H          3.65183        1.30783       -1.79012
H          2.02605        1.94366       -2.15265
H          2.54404        0.38628       -2.82407
H          1.47453        1.11276        1.68325
H          3.93382        0.90209        1.74604
H          3.49476        2.59273        2.00869
H          4.11555        2.07864        0.43710
H          0.92282       -2.30279       -0.73392
H         -0.10412       -0.98527       -2.06093
H         -0.98176        2.39167        2.62518
H         -2.52018        1.50964        2.44538
H         -0.98574        0.61953        2.40678
H         -1.88014        2.78345       -1.58166
H         -0.25783        2.18528       -1.93522
H         -1.64404        1.41820       -2.72320
H         -3.38245       -0.39594       -1.37974
H         -4.10923        1.90717       -1.69053
H         -5.18912        1.25047       -0.45891
H         -3.84830        2.29613        0.01705
H         -0.09372       -3.84899       -1.48911
H          0.08057       -3.80519        0.32148
H         -1.99571       -2.56306        0.49556
H         -2.16506       -2.58575       -1.31631
