38
804.log
C         -3.86478        0.54359       -1.77487
C         -3.65638       -0.08094       -0.40197
P         -1.86183       -0.24338       -0.03880
N         -1.52864       -1.71952       -1.07275
O         -2.35193       -2.59573       -1.03825
O         -0.51875       -1.69899       -1.73841
N         -2.08185       -1.12076        1.55740
O         -1.58901       -2.19925        1.71161
O         -2.74414       -0.47550        2.32578
Rh        -0.31012        1.34462       -0.31348
Cl         0.24552        1.15771        2.00682
C          3.81154       -0.86546       -1.76447
C          2.29168       -0.82479       -1.85856
P          1.36293       -0.20122       -0.37254
N          2.76805        0.26792        0.67877
O          3.08672       -0.45893        1.57916
O          3.31804        1.28706        0.33143
N          1.47444       -2.69937        0.75493
O          0.85445       -1.49709        0.50575
O          2.51586       -2.86261        0.22944
C         -0.26600        3.59119       -0.15726
C          0.97951        3.01681       -0.53176
H         -4.92189        0.73467       -1.94109
H         -3.51076       -0.11933       -2.56245
H         -3.32473        1.48680       -1.85305
H         -4.12655       -1.06890       -0.34009
H         -4.06857        0.55917        0.38479
H         -1.35864        2.43699       -0.08360
H         -0.56725        1.38385       -1.81369
H          4.14550       -1.51956       -0.96090
H          4.22559        0.12888       -1.60932
H          4.20868       -1.25505       -2.69915
H          1.88304       -1.81254       -2.08208
H          1.98000       -0.15812       -2.66492
H         -0.80071        4.18454       -0.89263
H         -0.36998        3.94483        0.86411
H          1.76961        3.00006        0.21302
H          1.33454        3.18185       -1.54545
