30
807.log
C          1.63673        2.42876       -1.04508
P          1.11780        1.09608        0.08987
F          0.47287        2.02299        1.26212
C          2.70874        0.81982        0.98358
Cl         3.81098        0.08518       -0.18392
Rh         0.02372       -0.79391       -0.50169
Cl         0.48478       -1.45198        1.75371
C         -2.30449        0.36349        1.95003
P         -2.00749       -0.16321        0.23475
F         -3.21379       -1.25163        0.13355
C         -2.89226        1.16304       -0.69922
Cl        -1.76787        2.51922       -0.72795
C          0.77374       -2.78307       -1.20390
C         -0.63516       -2.73678       -0.96859
H          0.79709        2.74871       -1.65521
H          2.01320        3.27012       -0.46504
H          2.41588        2.03639       -1.69440
H          3.13630        1.76105        1.33413
H          2.56174        0.12272        1.81034
H          1.35678       -1.38445       -0.98477
H         -0.26041       -0.32542       -1.91961
H         -3.37669        0.46222        2.11449
H         -1.79351        1.30579        2.13296
H         -1.88878       -0.39205        2.61486
H         -3.81614        1.47620       -0.21113
H         -3.08560        0.85219       -1.72599
H          1.11448       -2.89995       -2.22841
H          1.38342       -3.31206       -0.47644
H         -1.01165       -3.24687       -0.08568
H         -1.29807       -2.80654       -1.82668
