40
810.log
C          1.43951        2.35299       -1.55651
O          2.29125        1.35781       -1.02510
P          1.75887        0.21739        0.01465
C          2.14214        0.96474        1.64513
C          3.27640       -0.84006       -0.17628
O          4.45232       -0.09885       -0.02442
Rh        -0.18687       -0.91887       -0.43219
Cl        -0.25303       -1.46328        1.89214
C         -2.76498        1.45607       -1.97401
O         -2.29419        1.78227       -0.68102
P         -1.69049        0.61609        0.30605
C         -3.22536       -0.03226        1.08642
C         -1.19432        1.84158        1.60513
O         -0.34681        2.82055        1.06564
C         -0.48601       -3.06795       -0.95906
C         -1.70840       -2.34388       -0.81569
H          1.87430        2.66921       -2.50576
H          0.43739        1.94903       -1.73011
H          1.37587        3.20503       -0.87733
H          1.62999        1.91803        1.74535
H          3.22124        1.10827        1.69884
H          1.81553        0.28489        2.42718
H          3.26468       -1.60055        0.60958
H          3.24013       -1.34121       -1.15600
H          4.40881        0.64253       -0.64123
H          0.73233       -2.08951       -0.79337
H         -0.17721       -0.49723       -1.89128
H         -2.73625        2.37084       -2.56705
H         -3.79118        1.08528       -1.93026
H         -2.12783        0.69632       -2.43875
H         -3.79404       -0.61280        0.36221
H         -3.82902        0.80465        1.43522
H         -2.94827       -0.67103        1.92031
H         -0.65267        1.32264        2.39696
H         -2.10257        2.29768        2.02643
H         -0.81604        3.21692        0.32029
H         -0.21338       -3.41947       -1.94980
H         -0.21882       -3.75576       -0.16205
H         -2.29683       -2.55990        0.07085
H         -2.30565       -2.18288       -1.71020
