48
822.log
C          2.02435        1.09522       -2.55958
C          3.20702        1.09076       -1.59617
C          3.90319       -0.26831       -1.60011
C          2.72223        1.38175       -0.20466
O          3.05372        2.32252        0.45682
P          1.60436        0.11406        0.65135
C          2.92574       -0.54398        1.76854
C          0.99342        1.23358        1.89275
N          0.64063        1.93085        2.72867
Rh         0.13979       -1.54416       -0.01869
Cl        -1.23809       -0.75609        1.81665
C         -3.35811        2.62324       -0.73449
C         -2.35557        2.26007        0.36591
C         -1.86885        3.50051        1.10718
C         -1.19892        1.51076       -0.22716
O         -0.05747        1.90992       -0.27662
P         -1.41853       -0.19976       -0.94259
C         -1.65640        0.18931       -2.73305
C         -3.09043       -0.62586       -0.55033
N         -4.16945       -0.94967       -0.33747
C         -0.04056       -3.66617        0.65535
C         -1.08000       -3.25694       -0.23971
H          1.50530        2.05011       -2.51819
H          2.37227        0.92433       -3.57614
H          1.33295        0.29905       -2.28453
H          3.91633        1.87911       -1.87351
H          4.24261       -0.50655       -2.60550
H          4.76500       -0.26527       -0.93606
H          3.20439       -1.04319       -1.28165
H          3.53382       -1.28525        1.25184
H          3.55210        0.27500        2.12547
H          2.43410       -1.01730        2.62083
H          0.99158       -2.53540        0.79248
H          0.90243       -1.93525       -1.26773
H         -2.87740        3.22321       -1.50513
H         -4.16556        3.20641       -0.29909
H         -3.79417        1.73430       -1.18479
H         -2.84467        1.57194        1.06678
H         -1.14358        3.22549        1.86884
H         -1.39309        4.19231        0.41558
H         -2.70803        3.99913        1.58476
H         -1.67075       -0.75160       -3.28371
H         -2.58989        0.72364       -2.90437
H         -0.81953        0.78929       -3.08648
H          0.66054       -4.41751        0.30392
H         -0.30427       -3.77300        1.70410
H         -2.06987       -3.10826        0.18406
H         -1.09393       -3.69990       -1.23208
