40
828.log
C          0.78264       -2.96788        1.93352
P          0.21212       -1.29868        1.43299
C         -0.51388       -0.66597        2.98504
C         -1.29723       -1.74209        0.47137
O         -2.39396       -1.29369        0.62049
O         -0.87502       -2.55218       -0.52844
C         -1.30909       -2.35649       -1.82574
O         -2.27563       -1.74824       -2.15400
Rh         1.60001       -0.01510        0.12444
Cl         0.53198       -0.61015       -1.97422
C          0.23508        2.83195       -1.47080
P          0.34279        1.89613        0.09760
C          0.66403        3.21266        1.32528
C         -1.46734        1.66699        0.42899
O         -1.99156        1.91551        1.47245
O         -2.03529        1.13191       -0.66829
C         -3.37286        0.81590       -0.74611
O         -4.21938        1.22374       -0.02967
C          3.54674       -0.46749       -0.87579
C          3.12071        0.89054       -1.02785
H          1.66274       -2.84999        2.56544
H          1.05132       -3.54021        1.04672
H         -0.00084       -3.48631        2.48625
H          0.28960       -0.45263        3.68859
H         -1.07072        0.24969        2.79009
H         -1.18923       -1.41287        3.40261
H         -0.68827       -2.99229       -2.46946
H          2.52677       -1.23178       -0.01733
H          2.30498        0.40969        1.39549
H         -0.01510        2.14128       -2.27527
H          1.20572        3.28484       -1.67226
H         -0.52587        3.60903       -1.39477
H         -0.02840        4.04149        1.18377
H          1.69025        3.55788        1.21506
H          0.53441        2.79943        2.32409
H         -3.49529        0.15608       -1.61443
H          4.41902       -0.65853       -0.25724
H          3.48426       -1.10369       -1.75406
H          2.77702        1.18622       -2.01447
H          3.69397        1.65779       -0.51328
