50
829.log
C          4.30103       -1.34843        0.74436
C          4.23100        0.16891        0.66041
C          3.53827        0.67635       -0.60456
P          1.69521        0.64890       -0.71938
N          1.49542        1.61156       -2.07080
C          0.60962        1.32865       -3.18806
N          1.35129        1.96504        0.51062
O          2.26147        2.53971        1.05384
O          0.17932        2.29306        0.57410
Rh         0.30027       -1.08753       -0.30298
Cl         1.08205       -0.40279        1.87336
C         -3.02603        1.27235        3.56267
C         -2.09436        1.08068        2.37332
C         -2.70593        0.13030        1.34872
P         -1.68185        0.04914       -0.18855
N         -1.94177        1.43913       -1.05914
C         -3.20608        2.16127       -1.03541
N         -2.86698       -0.96176       -1.12367
O         -2.98092       -0.71750       -2.30140
O         -3.44508       -1.84706       -0.52971
C          0.70149       -3.23827        0.20433
C         -0.64012       -2.82353        0.46062
H          3.31250       -1.76181        0.91690
H          4.70920       -1.77315       -0.17149
H          4.93618       -1.64442        1.57552
H          3.72287        0.55956        1.54185
H          5.24665        0.57289        0.65929
H          3.80510        1.72998       -0.75518
H          3.88305        0.10533       -1.47457
H          2.27606        2.20653       -2.32582
H         -0.13145        0.59369       -2.87497
H          1.15680        0.93355       -4.04657
H          0.09284        2.24090       -3.49017
H          1.47522       -2.06541       -0.41024
H         -0.03532       -1.45819       -1.73031
H         -3.22458        0.31981        4.04943
H         -2.57505        1.94168        4.29058
H         -3.97604        1.69938        3.24550
H         -1.14158        0.67794        2.71753
H         -1.88567        2.04572        1.90554
H         -3.71099        0.46365        1.06577
H         -2.78771       -0.87850        1.75957
H         -1.14561        2.06391       -1.02230
H         -3.21731        2.84997       -1.87961
H         -4.03217        1.46277       -1.16334
H         -3.35719        2.73262       -0.11600
H          0.86754       -3.94354       -0.60454
H          1.34632       -3.40099        1.06413
H         -0.92333       -2.68829        1.50185
H         -1.43078       -3.24311       -0.15457
