46
836.log
C          3.31573       -0.41597        2.12284
C          3.62527       -0.48433        0.63876
O          3.18952        0.67843       -0.05885
P          1.64579        1.06184       -0.33638
C          1.98019        2.22343       -1.70728
C          1.33666        2.35412        0.98404
O          0.13102        3.02362        0.74725
Rh         0.07049       -0.52824       -0.89848
Cl         0.71210       -2.22254        0.70022
C         -3.14796        3.22275       -0.44277
C         -3.02984        1.70993       -0.53182
O         -2.42163        1.22736        0.66272
P         -1.49929       -0.11422        0.70874
C         -1.04147        0.03871        2.47238
C         -2.79270       -1.44186        0.90248
O         -2.28931       -2.64342        1.39974
C          0.15749       -2.07712       -2.50831
C         -1.11353       -2.00032       -1.86051
H          3.69544        0.50977        2.54947
H          2.23808       -0.46813        2.26767
H          3.77200       -1.26074        2.63120
H          3.16221       -1.37659        0.20588
H          4.70441       -0.52429        0.46459
H          1.13408        2.90013       -1.79855
H          2.88626        2.78203       -1.48034
H          2.10709        1.67680       -2.63862
H          2.13831        3.09569        0.90187
H          1.37883        1.91788        1.99214
H         -0.60269        2.39332        0.81082
H          1.12741       -0.98757       -1.91438
H         -0.46243        0.49918       -1.87126
H         -3.72170        3.49976        0.43772
H         -2.16239        3.67546       -0.37193
H         -3.65163        3.60184       -1.32735
H         -2.41975        1.42144       -1.39770
H         -4.01990        1.25252       -0.63214
H         -0.27471        0.79119        2.63247
H         -0.67275       -0.92600        2.81412
H         -1.94013        0.31089        3.02408
H         -3.53913       -1.06078        1.61483
H         -3.29687       -1.59118       -0.06908
H         -1.34546       -2.72586        1.15457
H          0.22617       -1.74660       -3.54063
H          0.77845       -2.94038       -2.28587
H         -1.38298       -2.83154       -1.21620
H         -1.94741       -1.61234       -2.44066
