36
838.log
C          2.30498        4.31151        0.06269
C          1.64718        2.95638        0.29004
C          2.65463        1.82307        0.14036
P          1.84941        0.17354        0.25247
F          1.52701        0.19157        1.82865
Br         3.63262       -1.06773        0.31281
Rh         0.15574       -0.41270       -1.09230
Cl         0.31700       -2.27645        0.42046
C         -3.94946       -2.55095        1.98455
C         -3.21621       -1.69847        0.95694
C         -2.31888       -0.67276        1.63814
P         -1.42415        0.36923        0.42170
F         -0.83271        1.41567        1.51385
Br        -3.09101        1.66276       -0.23244
C         -0.94846       -1.92856       -2.42963
C         -1.59446       -0.72965       -2.55754
H          1.57470        5.10781        0.17902
H          3.10691        4.47245        0.77982
H          2.72199        4.37065       -0.94013
H          0.83800        2.81881       -0.43518
H          1.21122        2.92578        1.29110
H          3.42379        1.88102        0.91784
H          3.14089        1.87239       -0.83832
H          1.24201       -0.88372       -2.02213
H          0.22823        0.86790       -1.90081
H         -3.23827       -3.08728        2.60837
H         -4.57270       -1.92929        2.62397
H         -4.58611       -3.27757        1.48639
H         -3.94872       -1.19157        0.31974
H         -2.60064       -2.34669        0.32776
H         -2.89175       -0.01016        2.29601
H         -1.55094       -1.17840        2.23044
H         -0.26092       -2.27029       -3.19426
H         -1.32827       -2.70180       -1.77052
H         -2.53497       -0.55550       -2.04430
H         -1.43176       -0.10942       -3.43098
