36
839.log
C          2.25705       -2.08239        1.18162
P          1.15257       -0.68763        0.74909
C          1.39262        0.46163        2.17803
O          2.29855       -0.65574       -1.14220
C          3.27318        0.06655       -1.09481
O          4.14166        0.49604       -1.74871
F          3.33142        0.52827        0.40195
Rh        -0.79541       -0.83618       -0.52110
Cl        -0.60834       -1.71663        1.76209
C         -2.76690        1.04545        1.68865
P         -1.80425        1.03502        0.13977
C         -2.90734        1.93673       -1.00492
O         -0.77756        2.28155        0.61855
C          0.09960        2.70883       -0.25616
O          0.19172        2.45913       -1.39963
F          0.92430        3.56896        0.36082
C         -1.25054       -2.83033       -1.54804
C         -2.37279       -1.87455       -1.36116
H          3.28423       -1.72925        1.15171
H          2.01722       -2.44222        2.18055
H          2.14153       -2.88467        0.45491
H          0.44731        0.60473        2.69620
H          2.13813        0.04269        2.85060
H          1.75135        1.42281        1.82240
H         -0.25081       -2.27332       -1.15631
H         -0.55028       -0.18802       -1.84560
H         -2.17625        0.63274        2.50302
H         -3.06696        2.06306        1.93076
H         -3.64385        0.41888        1.54517
H         -3.24156        2.87092       -0.55547
H         -2.37545        2.13584       -1.93267
H         -3.76174        1.29993       -1.21996
H         -1.01650       -3.06322       -2.58501
H         -1.31719       -3.73789       -0.94803
H         -3.13085       -2.18705       -0.64184
H         -2.82358       -1.50075       -2.27743
