46
846.log
C          2.61735       -0.36130        1.23670
P          1.48041        0.23597       -0.06623
C          2.65515        0.71356       -1.41639
C          3.79069        1.64353       -1.00343
C          5.02210        0.91100       -0.55395
O          5.19229       -0.27300       -0.61231
C          1.06664        2.65853        1.22242
O          1.01317        1.81515        0.25543
O          1.73419        2.19138        2.29934
Rh        -0.19258       -1.12369       -0.81505
Cl        -0.12578       -2.43547        1.20237
C         -3.49543       -1.09396        0.49706
P         -1.89031       -0.23407        0.39167
C         -2.40442        1.54054        0.24193
C         -2.88058        1.83696       -1.17643
C         -2.95533        3.31103       -1.44161
O         -3.85826        3.87317       -1.99298
C         -1.47400       -0.23882        2.19544
O         -2.18774       -0.64221        3.06984
O         -0.31232        0.38152        2.40548
C         -0.08046       -2.98882       -2.04114
C         -1.41479       -2.59653       -1.70159
H          3.15117       -1.21097        0.81295
H          2.03540       -0.70708        2.08674
H          3.32368        0.40408        1.54837
H          3.06940       -0.21432       -1.81778
H          2.04240        1.17502       -2.19363
H          4.09949        2.26554       -1.85034
H          3.48502        2.33708       -0.21559
H          5.81181        1.58502       -0.16546
H          1.73060        2.85794        2.99780
H          0.91387       -1.94177       -1.50929
H         -0.35412       -0.24827       -2.04408
H         -3.31044       -2.10545        0.85758
H         -4.13780       -0.57654        1.20940
H         -3.96417       -1.13695       -0.48421
H         -1.52921        2.15605        0.47126
H         -3.18782        1.75523        0.97477
H         -2.14349        1.42206       -1.87648
H         -3.84795        1.37625       -1.38226
H         -2.06717        3.86544       -1.07780
H         -0.05808        0.33788        3.34364
H          0.21560       -2.92791       -3.08425
H          0.32904       -3.85152       -1.52300
H         -1.93050       -3.20785       -0.96713
H         -2.05608       -2.25103       -2.50832
