46
847.log
C         -3.86219       -2.78254        0.71259
C         -3.86569       -1.50991       -0.07831
O         -4.86296       -0.85510       -0.27099
C         -2.55513       -1.03690       -0.64487
Cl        -1.23017       -2.20692       -0.52064
P         -1.86859        0.49630        0.21161
C         -3.24591        1.67960        0.00204
C         -2.11929        0.02852        1.96221
Rh         0.11022        1.28919       -0.60471
Cl        -0.16474        2.68168        1.32867
C          1.72766       -2.35396       -2.25528
C          2.01654       -2.28495       -0.78520
O          1.69585       -3.13397        0.00379
C          2.77266       -1.04321       -0.35259
Cl         4.15712       -1.56015        0.64087
P          1.66001        0.12094        0.61319
C          2.92197        1.18947        1.39680
C          1.20955       -0.91861        2.04204
C          0.44165        3.09363       -1.88703
C          1.65105        2.51868       -1.39263
H         -4.83942       -2.93615        1.16308
H         -3.63733       -3.61089        0.04262
H         -3.09003       -2.76393        1.47666
H         -2.68089       -0.77882       -1.70078
H         -4.18082        1.26357        0.37444
H         -2.98792        2.57831        0.56198
H         -3.35729        1.93264       -1.05225
H         -1.60089       -0.89856        2.19575
H         -3.18731       -0.07684        2.15361
H         -1.71598        0.83332        2.57568
H         -0.77302        2.21765       -1.44270
H          0.18780        0.36529       -1.79899
H          1.19798       -1.45089       -2.55575
H          2.66347       -2.40041       -2.80909
H          1.12540       -3.23062       -2.47723
H          3.17433       -0.49463       -1.20842
H          3.59867        1.59021        0.64372
H          2.39392        2.01105        1.88031
H          3.48807        0.62922        2.13831
H          0.72742       -0.27422        2.77682
H          0.53513       -1.71560        1.73592
H          2.11132       -1.35651        2.46934
H          0.24422        3.03169       -2.95325
H          0.11132        4.02433       -1.43447
H          2.16620        3.07394       -0.61478
H          2.31660        2.04978       -2.11296
