46
849.log
C          0.40360        1.01898        3.08980
C          1.69597        0.56750        2.42950
P          1.58149        0.52269        0.58377
Cl         1.42386        2.43693        0.16052
C          3.37748        0.27389        0.20561
N          3.58668        0.53641       -1.19685
C          4.90446        0.16068       -1.66055
Rh         0.22145       -0.98577       -0.47558
Cl         0.17218       -2.19183        1.57980
C         -4.43385        0.32442       -1.19853
C         -3.10813       -0.40996       -1.34665
P         -1.80587       -0.02152       -0.07785
Cl        -2.77279       -0.52247        1.57030
C         -1.95018        1.81925        0.04016
N         -1.45136        2.39328       -1.18139
C         -1.46604        3.84085       -1.18380
C          0.71625       -2.94847       -1.44205
C         -0.68046       -2.65591       -1.41856
H         -0.40284        0.33700        2.82837
H          0.13834        2.02713        2.77407
H          0.51368        1.01368        4.17220
H          1.93748       -0.44956        2.74518
H          2.52080        1.23748        2.69159
H          3.65531       -0.75240        0.51682
H          3.97648        0.98478        0.78942
H          2.87090        0.06023       -1.74581
H          5.64481        0.76412       -1.13385
H          5.14072       -0.90106       -1.48946
H          4.97841        0.37137       -2.72537
H          1.49735       -1.75828       -0.82017
H          0.29330       -0.22473       -1.79302
H         -4.81087        0.23766       -0.18128
H         -5.16935       -0.11388       -1.87093
H         -4.34285        1.37861       -1.44940
H         -3.27714       -1.48780       -1.26397
H         -2.66159       -0.22323       -2.32601
H         -1.31354        2.15209        0.86791
H         -2.99345        2.09167        0.29036
H         -1.97536        2.04100       -1.97611
H         -0.80878        4.19799       -0.39165
H         -1.08227        4.19569       -2.13787
H         -2.46956        4.26482       -1.02289
H          1.21925       -2.94938       -2.40519
H          1.07805       -3.70912       -0.75630
H         -1.29095       -3.22810       -0.72510
H         -1.16286       -2.45579       -2.37170
