50
853.log
C          3.27566       -1.39400       -1.89772
N          3.04269       -0.13439       -1.20746
C          2.67087        0.89162       -2.16872
P          1.95725       -0.30277        0.10685
C          2.99773       -1.34483        1.20444
C          2.20504        1.33124        0.97230
C          3.59320        1.83960        0.81258
O          3.88979        2.81314        0.17352
Rh        -0.17461       -1.09710       -0.13003
Cl        -0.09629       -0.72319        2.24364
C         -2.98710        0.99251        1.63823
N         -2.10941        1.73588        0.74567
C         -1.22984        2.59534        1.52458
P         -1.41443        0.80837       -0.49491
C         -0.63731        2.14169       -1.49229
C         -2.91400        0.67857       -1.62103
C         -4.17289        0.07466       -1.10588
O         -5.21066        0.67179       -0.99383
C         -0.85591       -3.20594        0.28075
C         -1.92950       -2.31196        0.01458
H          2.37044       -1.76695       -2.39541
H          3.62609       -2.14502       -1.19396
H          4.04893       -1.24002       -2.65104
H          3.46903        0.97754       -2.90727
H          2.57444        1.85169       -1.66796
H          1.73594        0.65046       -2.68955
H          2.92114       -2.39523        0.92823
H          2.62388       -1.23771        2.22141
H          4.03561       -1.02250        1.14177
H          1.97900        1.10761        2.01757
H          1.48496        2.06133        0.60209
H          4.36536        1.25239        1.34057
H          0.52476       -2.44439        0.06415
H         -0.10122       -1.29961       -1.63396
H         -3.63551        0.33802        1.05786
H         -2.42791        0.39162        2.36171
H         -3.61232        1.70422        2.17971
H         -1.85403        3.28642        2.09393
H         -0.61559        2.02672        2.22954
H         -0.58837        3.17798        0.86791
H          0.36335        2.38450       -1.14746
H         -0.55855        1.77851       -2.51599
H         -1.26792        3.02935       -1.46377
H         -3.13586        1.69622       -1.95270
H         -2.55623        0.07422       -2.45986
H         -4.11812       -1.00569       -0.87748
H         -0.64639       -3.98516       -0.44589
H         -0.69350       -3.50868        1.31134
H         -2.55195       -2.02085        0.85558
H         -2.46900       -2.45797       -0.91684
