40
858.log
C          5.20594        0.09557       -0.60075
C          3.86826        0.68211       -0.27266
O          3.62583        1.85336       -0.15245
O          2.92236       -0.25669       -0.12981
P          1.36812        0.19177        0.29284
C          1.58195        0.75935        2.01464
C          1.26120        1.83046       -0.58824
O          0.82994        2.81446       -0.05889
Rh        -0.07397       -1.47917       -0.25812
Cl        -0.86067       -1.47952        1.99518
C         -1.80131        3.39605        1.46282
C         -2.14975        2.36274        0.45020
O         -2.92494        2.49240       -0.46449
O         -1.48658        1.20968        0.63072
P         -1.79331       -0.03255       -0.42245
C         -3.51429       -0.48751       -0.00129
C         -2.03764        0.98301       -1.97352
O         -1.12176        1.60375       -2.43531
C          0.07150       -3.69661       -0.21429
C         -1.20877       -3.20578       -0.63994
H          5.13143       -0.45368       -1.53689
H          5.49394       -0.60767        0.17734
H          5.94580        0.88523       -0.68831
H          1.98268       -0.06212        2.60796
H          2.23945        1.62746        2.04511
H          0.59782        1.01711        2.39825
H          1.51154        1.79298       -1.66358
H          1.02530       -2.52051        0.00644
H          0.33565       -1.40844       -1.72050
H         -2.48915        4.23316        1.39684
H         -1.80909        2.95965        2.45838
H         -0.78683        3.73104        1.24379
H         -4.16807        0.38095       -0.07163
H         -3.52128       -0.88816        1.01184
H         -3.84428       -1.25862       -0.69467
H         -3.01098        0.88942       -2.48743
H          0.67919       -4.21931       -0.94720
H          0.12580       -4.12677        0.78238
H         -2.03228       -3.32254        0.05981
H         -1.49027       -3.37479       -1.67649
