36
862.log
C          0.85241        3.04429       -0.59325
P          0.52636        1.23822       -0.51897
C          1.15372        0.70337       -2.15776
C          2.11130        0.91327        0.76123
O          1.84792        0.87810        1.90732
O          2.96678        0.89419       -0.09104
Cl         4.98427        0.66437        0.27059
Rh        -1.45797        0.58225        0.52238
Cl        -1.82298        1.56385       -1.63156
C         -1.75398       -1.87520       -1.99771
P         -1.55426       -1.52608       -0.21159
C         -2.76793       -2.67125        0.52932
C         -0.00392       -2.58180        0.06253
O         -0.02341       -3.76224        0.21097
O          0.97083       -1.74017       -0.00531
Cl         2.65537       -2.29038        0.19193
C         -2.80893        2.14399        1.54285
C         -3.38769        0.81567        1.22964
H          0.71537        3.48532        0.39526
H          0.15889        3.50440       -1.29595
H          1.87652        3.21504       -0.92453
H          0.40912        0.93604       -2.91561
H          1.35689       -0.36539       -2.14511
H          2.07943        1.23574       -2.36835
H         -1.64637        2.09457        1.19902
H         -1.02235        0.02994        1.85718
H         -2.69572       -1.42841       -2.31773
H         -1.77135       -2.95159       -2.16713
H         -0.94552       -1.41558       -2.56337
H         -2.55497       -3.69080        0.20910
H         -3.76668       -2.37253        0.21440
H         -2.70107       -2.60557        1.61381
H         -2.75649        2.38442        2.60303
H         -3.22067        2.97229        0.96713
H         -4.13998        0.81011        0.44055
H         -3.69797        0.22238        2.08683
