44
863.log
C         -3.43678       -0.33608       -2.26196
O         -3.06132       -0.51206       -0.90880
C         -2.29662        0.48007       -0.38858
Br        -3.45030        2.03007        0.16302
P         -1.42345       -0.31277        1.04234
C         -1.04439        1.05231        2.20385
C         -2.86431       -1.03362        1.90799
Rh         0.12367       -1.81537        0.28350
Cl        -0.00087       -0.97509       -1.97116
C          0.46654        2.68452       -1.12189
O          0.83503        1.67304       -0.20088
C          1.94918        0.97307       -0.54173
Br         3.58159        2.11223       -0.26291
P          2.01220       -0.56445        0.50509
C          2.50773        0.09762        2.13676
C          3.58970       -1.27323       -0.09354
C         -0.18165       -3.86972       -0.54828
C          1.18999       -3.48612       -0.46804
H         -2.54921       -0.28977       -2.89932
H         -4.03982       -1.20102       -2.52926
H         -4.02982        0.57749       -2.38028
H         -1.59791        0.92366       -1.10222
H         -0.35780        1.76433        1.75365
H         -1.95895        1.56084        2.50741
H         -0.57706        0.60138        3.07912
H         -3.33111       -1.79159        1.28176
H         -2.50407       -1.49991        2.82436
H         -3.59160       -0.25879        2.15353
H         -1.08948       -2.71220        0.01881
H          0.25559       -2.35143        1.69592
H          0.28976        2.25674       -2.11387
H         -0.44329        3.14497       -0.74061
H          1.25390        3.44295       -1.19063
H          1.99822        0.71289       -1.60640
H          3.52197        0.49366        2.10747
H          2.45519       -0.72016        2.85408
H          1.81556        0.87879        2.44472
H          3.49037       -1.54125       -1.14548
H          4.41010       -0.56625        0.03042
H          3.79947       -2.17463        0.48057
H         -0.53643       -4.64453        0.12490
H         -0.63497       -3.90600       -1.53514
H          1.69546       -3.27652       -1.40664
H          1.81350       -3.99854        0.26008
