34
864.log
C          2.62385        1.26527       -2.00719
N          2.05261        1.86190       -0.80889
P          0.47225        1.41302       -0.38916
C         -0.43918        2.46749       -1.60452
Cl         0.33083        2.50630        1.24208
Rh         0.07472       -0.81933       -0.25763
Cl         0.18589       -0.64103        2.19612
C         -2.82509        1.29251        1.57622
N         -2.66325        0.87136        0.19552
P         -2.25127       -0.70971       -0.19002
C         -2.87894       -0.67452       -1.93059
Cl         2.83287       -1.04629        0.59935
C          0.00938       -2.98495        0.30048
C          0.16706       -2.90577       -1.05985
H          2.81045        0.19208       -1.90272
H          3.56526        1.76741       -2.22938
H          1.94214        1.40987       -2.84355
H          2.67235        1.69567       -0.01763
H         -0.74350        3.39495       -1.12652
H          0.22808        2.69696       -2.43072
H         -1.31383        1.94816       -1.98079
H          1.92507       -0.86964        1.60386
H          0.11990       -0.71890       -1.76493
H         -3.83747        1.11024        1.94766
H         -2.12313        0.73989        2.19663
H         -2.60279        2.35613        1.66596
H         -3.27878        1.36735       -0.43733
H         -2.48890        0.17634       -2.48689
H         -3.96794       -0.62948       -1.91434
H         -2.58199       -1.58851       -2.43848
H          0.86207       -3.18186        0.94138
H         -0.95591       -3.21928        0.73310
H         -0.66766       -3.10306       -1.72192
H          1.14844       -3.03965       -1.50461
