46
867.log
C         -4.79728        0.19871       -0.50825
N         -3.84915       -0.35542       -1.45016
C         -3.43840       -1.71116       -1.18642
C         -2.61817       -1.96516        0.09319
P         -0.87661       -1.31886        0.08601
C         -0.15857       -2.35059       -1.25126
Cl        -0.24113       -2.29820        1.68110
Rh        -0.54467        0.95237        0.08648
Cl         0.17863        0.95837        2.35790
C          3.93655       -2.22792       -0.33585
N          2.71871       -1.77480        0.31377
C          2.92929       -0.67451        1.23983
C          3.04391        0.65281        0.50354
P          1.62532        0.99607       -0.63083
C          2.22841        2.62553       -1.24809
Cl         2.06473       -0.07438       -2.23355
C         -1.89759        2.64359        0.67018
C         -0.62172        3.07037        0.20518
H         -4.41174        0.32284        0.51469
H         -5.66981       -0.45427       -0.46687
H         -5.11500        1.17430       -0.87368
H         -3.03271        0.24600       -1.52902
H         -2.86573       -2.05104       -2.05372
H         -4.34844       -2.31946       -1.12704
H         -3.12750       -1.53279        0.95955
H         -2.54521       -3.04521        0.25745
H          0.92504       -2.33277       -1.15237
H         -0.43353       -1.92719       -2.21418
H         -0.52676       -3.37237       -1.16813
H         -1.96649        1.06136        0.63008
H         -0.99589        1.01235       -1.36698
H          4.72889       -2.49298        0.37948
H          3.70921       -3.10131       -0.94502
H          4.31362       -1.44577       -0.99318
H          2.32351       -2.55487        0.83247
H          2.06538       -0.61929        1.90438
H          3.83047       -0.81949        1.86145
H          3.96294        0.70879       -0.08686
H          3.04081        1.46316        1.23637
H          1.58551        2.95748       -2.06140
H          2.19668        3.35795       -0.44515
H          3.24966        2.52592       -1.61582
H         -2.76321        2.83233        0.04170
H         -2.09720        2.72774        1.73426
H          0.06508        3.46282        0.94946
H         -0.58146        3.58385       -0.75154
