44
875.log
C         -0.35307        0.01679        2.79262
P          1.04471        0.25537        1.63603
C          2.46278       -0.09584        2.73869
C          1.11086        2.13143        1.67647
O          2.02147        2.54841        0.67410
C          1.49983        2.91005       -0.49125
O          0.33110        3.06660       -0.73610
C          2.55579        3.15046       -1.47010
N          3.34327        3.34198       -2.27578
Rh         1.16943       -0.85739       -0.36381
Cl         0.86796       -2.68758        1.13935
C         -1.56704       -1.27792       -2.59014
P         -1.03897       -0.84526       -0.89063
C         -2.19069       -1.88233        0.08060
C         -1.81940        0.84560       -0.78388
O         -3.23421        0.77768       -0.85634
C         -3.88979        0.83450        0.29309
O         -3.40541        0.95899        1.38905
C         -5.32785        0.72091        0.06810
N         -6.45897        0.62179       -0.06048
C          2.89289       -1.94730       -1.28512
C          1.64508       -2.16728       -1.94932
H         -0.16108        0.57179        3.71102
H         -0.42136       -1.04672        3.01535
H         -1.29150        0.35630        2.35591
H          3.37586        0.29446        2.28830
H          2.54675       -1.17706        2.84123
H          2.30870        0.35516        3.71899
H          1.50345        2.48586        2.63301
H          0.12233        2.56562        1.49201
H          2.68801       -0.93367       -0.14351
H          1.38103        0.34747       -1.26449
H         -2.63065       -1.07307       -2.71302
H         -1.37442       -2.33531       -2.76574
H         -0.99394       -0.68975       -3.30493
H         -1.80197       -2.90031        0.05206
H         -2.20982       -1.56294        1.12083
H         -3.19397       -1.86097       -0.34572
H         -1.51212        1.34196        0.14150
H         -1.47241        1.43940       -1.63277
H          3.65665       -1.38655       -1.81628
H          3.28712       -2.76213       -0.68373
H          1.18493       -3.14370       -1.81845
H          1.53269       -1.76041       -2.95039
