38
88.log
C         -1.99828       -1.72988        2.41194
C         -2.77546       -0.81013        1.48425
P         -1.89190       -0.39364       -0.07759
Cl        -3.46138        0.24646       -1.15310
O         -1.77039       -1.91468       -0.61013
C         -1.25915       -2.19468       -1.90349
Rh        -0.14610        1.07136       -0.22457
Cl         0.07242        0.97515        2.14523
C          2.51110       -2.93318        0.81280
C          1.34339       -1.96247        0.90582
P          1.54595       -0.44592       -0.11864
Cl         3.25989        0.26357        0.60711
O          2.07569       -1.19574       -1.45767
C          2.44969       -0.43955       -2.59598
C         -0.09971        3.31321       -0.11725
C          1.18515        2.71549       -0.27162
H         -1.74483       -2.65949        1.90828
H         -1.08801       -1.24054        2.74712
H         -2.60415       -1.96217        3.28546
H         -2.98143        0.14059        1.98209
H         -3.72321       -1.26995        1.18798
H         -1.19568       -3.27946       -1.98350
H         -1.93150       -1.80737       -2.67231
H         -0.26855       -1.75409       -2.03611
H         -1.20194        2.18220       -0.15112
H         -0.23958        1.08385       -1.74307
H          2.32657       -3.78797        1.46038
H          3.43723       -2.45817        1.12809
H          2.63451       -3.28887       -0.20672
H          1.20912       -1.60976        1.93107
H          0.41512       -2.44196        0.59022
H          1.67063        0.28417       -2.85622
H          2.58379       -1.14823       -3.41253
H          3.38606        0.09166       -2.41182
H         -0.50180        3.88905       -0.94542
H         -0.35269        3.71156        0.86110
H          1.83892        2.72023        0.59588
H          1.70676        2.86879       -1.21339
