46
883.log
C          0.38414       -3.01118        0.29390
C          0.93774       -2.18535        1.45172
P          1.50986       -0.50675        0.93536
C          2.55464       -0.08855        2.38457
N          2.70974       -1.05927       -0.13525
C          3.60613       -0.11657       -0.71618
Cl         5.21965       -0.88821       -0.91576
Rh         0.19986        1.18719        0.10683
Cl         0.20115       -0.07345       -1.95025
C         -1.90834       -0.40925        3.10786
C         -2.39210       -0.76009        1.70813
P         -1.96176        0.58092        0.51603
C         -3.04943        1.91756        1.13553
N         -2.95417        0.11428       -0.78026
C         -2.76555       -1.10014       -1.48478
Cl        -4.31188       -2.04569       -1.46208
C          0.88035        2.96363       -1.07639
C         -0.54011        2.88159       -0.93384
H          1.18518       -3.52198       -0.23475
H         -0.31367       -3.76658        0.65131
H         -0.13068       -2.36993       -0.42097
H          1.80109       -2.68357        1.90094
H          0.18396       -2.04375        2.22803
H          1.93195       -0.09398        3.27694
H          2.97765        0.90800        2.27415
H          3.35171       -0.82383        2.47977
H          2.27181       -1.63010       -0.85516
H          3.31478        0.22626       -1.71367
H          3.76509        0.73110       -0.04635
H          1.54947        1.81733       -0.27452
H          0.22892        1.94328        1.41919
H         -1.94600       -1.27796        3.76274
H         -0.88034       -0.04421        3.06314
H         -2.52434        0.37212        3.54546
H         -3.47665       -0.89133        1.67501
H         -1.92814       -1.68776        1.36777
H         -3.15672        2.68725        0.37395
H         -2.59985        2.36458        2.01856
H         -4.02802        1.50501        1.37447
H         -3.20094        0.89202       -1.38155
H         -2.03223       -1.73640       -0.99409
H         -2.51031       -0.97659       -2.53735
H          1.39271        3.77840       -0.57313
H          1.29833        2.72219       -2.04982
H         -1.10617        2.61228       -1.82232
H         -1.01893        3.64205       -0.32325
