42
884.log
C          0.34937       -1.17955        3.21645
P         -0.76106       -0.90491        1.77930
C         -2.28736       -1.65800        2.46876
C         -1.06877        0.90082        2.02282
C         -1.93291        1.51124        0.94560
O         -2.01904        2.66626        0.66670
O         -2.70612        0.54142        0.44790
Br        -3.90779        1.03196       -0.84259
Rh        -0.22128       -1.60604       -0.32913
Cl         0.02584        0.70015       -0.97737
C          2.89632       -1.22208       -1.89791
P          2.06448       -1.69898       -0.33730
C          2.87066       -3.31713       -0.02030
C          3.09208       -0.69737        0.85767
C          2.60123        0.72217        0.88877
O          1.96621        1.20884        1.78260
O          3.00803        1.35358       -0.19839
Br         2.41569        3.07940       -0.42854
C         -1.56933       -1.96649       -2.09111
C         -0.19991       -2.18902       -2.38748
H         -0.19196       -0.99482        4.14379
H          1.19548       -0.50005        3.15641
H          0.70052       -2.21006        3.20185
H         -2.51829       -1.23251        3.44541
H         -2.10906       -2.72737        2.57238
H         -3.12822       -1.51134        1.79520
H         -0.11462        1.43330        2.03024
H         -1.56893        1.05662        2.98443
H         -1.72755       -1.58403       -0.52369
H         -0.33586       -3.05285        0.11644
H          3.97697       -1.18841       -1.76123
H          2.65063       -1.95551       -2.66438
H          2.53670       -0.24414       -2.21425
H          2.59843       -3.67130        0.97183
H          3.95390       -3.24205       -0.10220
H          2.49838       -4.03217       -0.75099
H          4.13102       -0.72866        0.52438
H          2.99658       -1.12560        1.85645
H         -2.23594       -2.82210       -2.04570
H         -2.03265       -1.06526       -2.48172
H          0.29090       -1.44898       -3.01188
H          0.12295       -3.21135       -2.56724
