44
888.log
C          1.76092        2.56372       -1.97121
C          2.26559        2.55343       -0.56031
O          1.95640        3.39843        0.25006
C          3.11958        1.38156       -0.18708
P          2.05540        0.10019        0.65463
C          1.66157        0.97137        2.21090
N          3.31750       -0.84921        1.26957
Rh         0.46665       -1.06333       -0.53625
Cl        -0.02239       -1.88282        1.66593
C         -4.35098        0.94962        1.80330
C         -3.90481        0.62672        0.40392
O         -4.36926        1.17472       -0.57364
C         -2.83196       -0.40358        0.28486
P         -1.27520        0.39737       -0.40947
C         -1.21261        1.90562        0.62559
N         -1.73945        1.10069       -1.85323
C          0.52643       -3.17351       -1.27800
C         -0.75316       -2.54541       -1.42578
H          1.09113        1.70876       -2.08817
H          2.57951        2.45281       -2.67737
H          1.21218        3.47928       -2.17442
H          3.58298        0.91576       -1.05632
H          3.87158        1.66309        0.55209
H          2.58229        1.00987        2.79233
H          0.90335        0.41350        2.75603
H          1.31351        1.97997        2.00682
H          2.92638       -1.48823        1.96005
H          3.76629       -1.40695        0.54707
H          1.52647       -2.16426       -0.71091
H          0.85542       -0.52920       -1.89834
H         -4.90332        0.09611        2.19474
H         -3.49306        1.11411        2.44987
H         -4.99875        1.82275        1.80638
H         -2.58434       -0.88519        1.22972
H         -3.11892       -1.15672       -0.45305
H         -2.11372        2.49505        0.46166
H         -0.34685        2.49766        0.33543
H         -1.12734        1.63364        1.67516
H         -1.67508        0.47474       -2.64635
H         -2.66290        1.52924       -1.81262
H          1.08068       -3.41223       -2.18147
H          0.61922       -3.92797       -0.50134
H         -1.53682       -2.89397       -0.75851
H         -1.09830       -2.34995       -2.43804
