50
896.log
C          2.03330        3.29377        0.34733
C          1.13378        2.32046       -0.40084
P          1.54068        0.53855       -0.12262
C          2.13773        0.41673        1.61936
C          2.34584       -1.05133        1.92354
O          2.81956       -1.79944        1.08988
C          3.04395        0.52978       -1.24543
C          4.34901        0.01665       -0.74498
O          2.85303        0.93712       -2.36389
Rh        -0.05600       -1.02548       -0.57964
Cl        -0.00970       -1.62020        1.75231
C         -3.85770       -1.42789        0.97162
C         -3.57111       -0.51911       -0.22186
P         -1.89214        0.27634       -0.10584
C         -2.12342        1.04538        1.58166
C         -1.25233        2.21803        1.87238
O         -0.27151        2.19925        2.56876
C         -2.34103        1.75051       -1.17500
C         -2.11408        1.56426       -2.63537
O         -2.80652        2.73807       -0.66589
C          0.13712       -3.18729       -1.12351
C         -1.21350       -2.76400       -1.05135
H          1.80260        4.31334        0.04421
H          3.08186        3.10293        0.12395
H          1.87462        3.21458        1.42028
H          1.22658        2.45969       -1.48316
H          0.08653        2.48471       -0.13318
H          1.40120        0.87248        2.28399
H          3.09601        0.93212        1.73460
H          2.28431       -1.33069        2.98556
H          4.75143        0.70670       -0.00374
H          5.05670       -0.08422       -1.56488
H          4.18380       -0.94151       -0.25167
H          1.14561       -1.91407       -0.84874
H         -0.05245       -0.63104       -2.03800
H         -4.20397       -0.85489        1.82783
H         -4.63004       -2.15047        0.71624
H         -2.96298       -1.97045        1.27205
H         -4.33166        0.26404       -0.30036
H         -3.57895       -1.09752       -1.14902
H         -3.16689        1.36933        1.61866
H         -1.91782        0.24240        2.29632
H         -1.59895        3.16055        1.40979
H         -2.58466        2.35721       -3.21197
H         -1.03817        1.56766       -2.81389
H         -2.48542        0.58716       -2.94179
H          0.55940       -3.41429       -2.09723
H          0.52757       -3.80025       -0.31668
H         -1.80059       -3.12091       -0.21203
H         -1.77076       -2.69371       -1.98191
