50
897.log
C          2.03292        3.29394        0.34731
C          1.13373        2.32050       -0.40106
P          1.54069        0.53863       -0.12261
C          2.13765        0.41684        1.61941
C          2.34572       -1.05123        1.92359
O          2.81938       -1.79936        1.08991
C          3.04418        0.52982       -1.24516
C          4.34914        0.01667       -0.74445
O          2.85351        0.93722       -2.36364
Rh        -0.05590       -1.02543       -0.57971
Cl        -0.00988       -1.62020        1.75227
C         -3.85688       -1.42831        0.97234
C         -3.57088       -0.51970       -0.22143
P         -1.89217        0.27622       -0.10586
C         -2.12337        1.04543        1.58158
C         -1.25238        2.21825        1.87186
O         -0.27160        2.19986        2.56831
C         -2.34153        1.75030       -1.17506
C         -2.11435        1.56420       -2.63541
O         -2.80755        2.73761       -0.66596
C          0.13736       -3.18723       -1.12368
C         -1.21328       -2.76399       -1.05167
H          1.80215        4.31348        0.04415
H          3.08156        3.10326        0.12418
H          1.87400        3.21472        1.42023
H          1.22685        2.45964       -1.48337
H          0.08639        2.48465       -0.13375
H          1.40110        0.87261        2.28402
H          3.09592        0.93222        1.73471
H          2.28417       -1.33060        2.98559
H          4.75132        0.70660       -0.00297
H          5.05705       -0.08403       -1.56418
H          4.18383       -0.94159       -0.25135
H          1.14576       -1.91398       -0.84872
H         -0.05225       -0.63095       -2.03810
H         -4.20293       -0.85519        1.82856
H         -4.62917       -2.15107        0.71739
H         -2.96191       -1.97060        1.27256
H         -4.33173        0.26315       -0.29998
H         -3.57865       -1.09836       -1.14843
H         -3.16687        1.36926        1.61864
H         -1.91757        0.24262        2.29638
H         -1.59904        3.16055        1.40884
H         -2.58461        2.35732       -3.21205
H         -1.03841        1.56727       -2.81372
H         -2.48594        0.58723       -2.94198
H          0.55976       -3.41414       -2.09737
H          0.52775       -3.80022       -0.31684
H         -1.80050       -3.12097       -0.21247
H         -1.77041       -2.69363       -1.98230
