50
898.log
C          2.03339        3.29374        0.34714
C          1.13382        2.32042       -0.40093
P          1.54069        0.53851       -0.12262
C          2.13769        0.41675        1.61938
C          2.34583       -1.05130        1.92355
O          2.81955       -1.79938        1.08986
C          3.04399        0.52967       -1.24539
C          4.34910        0.01679       -0.74482
O          2.85304        0.93679       -2.36393
Rh        -0.05602       -1.02548       -0.57964
Cl        -0.00972       -1.62021        1.75232
C         -3.85766       -1.42785        0.97173
C         -3.57110       -0.51910       -0.22178
P         -1.89214        0.27636       -0.10583
C         -2.12338        1.04544        1.58166
C         -1.25230        2.21812        1.87232
O         -0.27148        2.19938        2.56870
C         -2.34106        1.75051       -1.17501
C         -2.11412        1.56423       -2.63538
O         -2.80656        2.73807       -0.66592
C          0.13706       -3.18730       -1.12352
C         -1.21355       -2.76398       -1.05135
H          1.80272        4.31330        0.04396
H          3.08194        3.10286        0.12376
H          1.87473        3.21464        1.42010
H          1.22658        2.45958       -1.48327
H          0.08660        2.48470       -0.13324
H          1.40113        0.87249        2.28399
H          3.09595        0.93217        1.73465
H          2.28431       -1.33068        2.98556
H          4.75136        0.70693       -0.00358
H          5.05686       -0.08402       -1.56466
H          4.18400       -0.94138       -0.25148
H          1.14557       -1.91410       -0.84875
H         -0.05246       -0.63105       -2.03799
H         -4.20392       -0.85482        1.82793
H         -4.62999       -2.15044        0.71639
H         -2.96292       -1.97038        1.27216
H         -4.33167        0.26405       -0.30029
H         -3.57896       -1.09754       -1.14892
H         -3.16686        1.36939        1.61867
H         -1.91777        0.24249        2.29634
H         -1.59893        3.16061        1.40969
H         -2.58459        2.35725       -3.21199
H         -1.03821        1.56746       -2.81390
H         -2.48563        0.58719       -2.94180
H          0.55933       -3.41430       -2.09724
H          0.52751       -3.80027       -0.31669
H         -1.80064       -3.12088       -0.21202
H         -1.77082       -2.69368       -1.98190
