36
90.log
C          3.49903       -0.32751       -1.79145
C          2.88414        0.87988       -1.09382
C          3.94914        1.81383       -0.53582
P          1.76003        0.22192        0.23081
F          2.91565       -0.38698        1.19009
Cl         1.33197        1.82245        1.28127
Rh         0.02145       -1.16617       -0.20999
Cl        -0.30201       -1.01645        2.14647
C         -2.88444        2.76552        0.34569
C         -2.27473        1.45861        0.83308
C         -3.31697        0.50823        1.40886
P         -1.37726        0.56856       -0.52343
F         -0.60970        1.85919       -1.17582
Cl        -2.77495        0.38580       -1.89793
C         -0.27670       -3.37879       -0.07660
C         -1.46600       -2.64477       -0.38581
H          2.71935       -0.99661       -2.15430
H          4.13469       -0.87789       -1.09952
H          4.10381       -0.00964       -2.63807
H          2.23578        1.41730       -1.79325
H          4.62867        2.11060       -1.33266
H          3.50633        2.71262       -0.11327
H          4.52899        1.31272        0.23737
H          0.90139       -2.40574        0.01548
H          0.28359       -1.23117       -1.70790
H         -2.12461        3.42484       -0.06832
H         -3.64053        2.58044       -0.41505
H         -3.35926        3.27519        1.18175
H         -1.51793        1.65927        1.59791
H         -2.83131       -0.38588        1.79557
H         -3.84364        0.98914        2.23042
H         -4.04509        0.22301        0.65055
H          0.14059       -4.01698       -0.84993
H         -0.19541       -3.79327        0.92430
H         -2.21458       -2.56714        0.39861
H         -1.88727       -2.76061       -1.38090
