48
912.log
C         -5.32203       -0.50679       -0.51728
C         -3.83597       -0.62259       -0.20655
N         -3.28635        0.68931        0.09616
P         -1.61764        0.92326       -0.11861
O         -1.51793        2.43372        0.44119
C         -1.70341        1.32869       -1.91387
C         -0.37187        1.64951       -2.56681
Rh        -0.17966       -0.63720        0.74859
Cl        -0.10134       -1.57870       -1.44881
C          4.35330       -0.74185       -2.33511
C          3.20560       -0.90237       -1.34823
N          2.73492        0.41959       -0.92788
P          1.77482        0.49883        0.46529
O          2.86409        0.05099        1.55637
C          1.80450        2.34990        0.63833
C          1.58733        2.74906        2.09151
C         -0.51546       -2.72229        1.51720
C          0.85706       -2.31702        1.49507
H         -5.86251       -0.13271        0.34969
H         -5.72546       -1.47882       -0.78796
H         -5.47577        0.18244       -1.34303
H         -3.68656       -1.33024        0.62332
H         -3.30108       -1.01331       -1.07589
H         -3.57888        1.00486        1.01645
H         -1.09457        2.47035        1.30208
H         -2.16129        0.47481       -2.41433
H         -2.39062        2.17842       -1.95694
H          0.12920        2.46791       -2.05198
H          0.25868        0.76334       -2.54523
H         -0.52166        1.93700       -3.60620
H         -1.36992       -1.57557        1.03105
H         -0.31827       -0.04581        2.14400
H          5.15587       -0.15303       -1.89629
H          4.00922       -0.23930       -3.23639
H          4.74336       -1.71755       -2.61132
H          3.55124       -1.42689       -0.45258
H          2.40267       -1.49226       -1.80159
H          2.26964        0.87663       -1.70543
H          3.72372        0.44113        1.35745
H          1.02355        2.77501        0.00853
H          2.77141        2.70670        0.27286
H          1.37200        3.81235        2.17928
H          2.46968        2.52679        2.68750
H          0.75894        2.18287        2.51746
H         -0.98737       -2.85703        2.48680
H         -0.82714       -3.45607        0.77836
H          1.49379       -2.77504        0.74347
H          1.35438       -2.15194        2.44586
