50
921.log
C         -3.38691       -0.99978        2.07383
C         -2.96392        0.28701        1.37942
P         -1.95821       -0.08627       -0.12514
N         -3.20487       -0.56255       -1.16097
C         -1.67510        1.58711       -0.92267
C         -2.24720        2.67369       -0.07569
C         -3.55249        3.24203       -0.55437
O         -1.69099        3.05234        0.93223
Rh        -0.09705       -1.40060        0.02673
Cl        -0.16018       -0.91113       -2.34014
C          2.50702       -0.69994        2.85329
C          2.90289       -0.19852        1.47376
P          1.40793        0.24181        0.47988
N          0.92158        1.57254        1.34434
C          2.27999        0.87115       -1.07027
C          3.28374        1.91259       -0.71127
C          4.71779        1.57241       -1.02625
O          2.96528        2.95901       -0.18846
C          0.18261       -3.56393       -0.46434
C          1.40880       -2.85527       -0.21804
H         -3.85005       -0.77942        3.03313
H         -2.51507       -1.63042        2.24820
H         -4.10412       -1.55635        1.47265
H         -2.34338        0.87919        2.05492
H         -3.83766        0.87486        1.08986
H         -3.69222       -1.38193       -0.80970
H         -2.79381       -0.80129       -2.06391
H         -0.59588        1.71586       -1.01821
H         -2.12737        1.53549       -1.91250
H         -4.22220        2.43804       -0.85107
H         -4.00882        3.85771        0.21663
H         -3.36125        3.85912       -1.43141
H         -0.97685       -2.64278       -0.24774
H         -0.19882       -1.66893        1.50898
H          3.38906       -0.91117        3.45509
H          1.90659        0.05226        3.35909
H          1.91326       -1.60760        2.77188
H          3.48000       -0.95661        0.93842
H          3.51016        0.70641        1.57010
H          1.57028        2.35621        1.29427
H         -0.03382        1.90311        1.22682
H          2.71596        0.02040       -1.59281
H          1.49301        1.29658       -1.69806
H          5.38513        2.32715       -0.61756
H          4.97363        0.59322       -0.62891
H          4.83809        1.53785       -2.10817
H         -0.10504       -4.33028        0.25055
H         -0.02815       -3.83960       -1.49463
H          2.03776       -2.66052       -1.08365
H          1.97132       -3.13564        0.66795
