44
930.log
C          3.65619        0.35400       -1.60945
N          3.25272        0.57152       -0.23016
C          3.75118       -0.49628        0.62886
P          1.58224        0.83191        0.03222
C          1.66013        1.70723        1.63086
C          1.20247        2.22488       -1.10621
O          0.56347        3.18518       -0.75585
Rh         0.10904       -0.86811       -0.40878
Cl         0.51098       -1.45012        1.86843
C         -2.41397        1.79468       -1.71723
N         -2.95393        0.83056       -0.77110
C         -3.72456       -0.17687       -1.48500
P         -1.79833        0.16946        0.30791
C         -2.86006       -0.72520        1.48976
C         -1.54680        1.68127        1.35361
O         -1.61670        1.65215        2.54905
C          0.46393       -3.01116       -0.96700
C         -0.91067       -2.70143       -0.71421
H          3.14334       -0.50038       -2.07454
H          3.46037        1.24945       -2.19574
H          4.72952        0.16162       -1.62631
H          4.83582       -0.40853        0.70849
H          3.31064       -0.40665        1.62118
H          3.50610       -1.49239        0.23927
H          2.69703        1.98857        1.81216
H          1.04206        2.60198        1.55579
H          1.28779        1.07719        2.43704
H          1.41522        2.05471       -2.17894
H          1.30344       -1.72839       -0.85814
H         -0.12262       -0.45137       -1.85704
H         -1.81682        1.31081       -2.50094
H         -3.24641        2.32008       -2.18784
H         -1.78670        2.52417       -1.21088
H         -4.12602       -0.90481       -0.78392
H         -3.12459       -0.69925       -2.24034
H         -4.55726        0.31762       -1.98786
H         -2.28103       -0.80221        2.41094
H         -3.76308       -0.14137        1.66662
H         -3.10520       -1.72620        1.14285
H         -1.29270        2.61551        0.81750
H          0.74673       -3.26658       -1.98467
H          0.98630       -3.58993       -0.21013
H         -1.33035       -3.08658        0.21086
H         -1.59659       -2.74047       -1.55621
