42
934.log
C         -3.31665        2.59880       -1.45779
C         -2.57578        2.08103       -0.23356
C         -2.95853        0.67574        0.11628
O         -3.96872        0.11445       -0.20364
P         -1.71690       -0.23783        1.18271
C         -2.88061       -1.35630        2.05428
O         -1.48044        0.93439        2.28349
Rh         0.07650       -1.11224        0.09307
Cl        -1.04930       -0.47299       -1.95764
C          4.93229        0.99843        1.32207
C          3.87967        0.02421        0.79450
C          3.12718        0.62900       -0.36069
O          3.63111        0.99326       -1.38818
P          1.27959        0.82396       -0.12796
C          1.35659        2.17811        1.11803
O          0.88253        1.66150       -1.40570
C          0.44713       -3.12438       -0.81728
C          1.50754       -2.18538       -1.03263
H         -4.39081        2.53676       -1.30337
H         -3.04440        3.63184       -1.65776
H         -3.05974        1.99262       -2.32276
H         -2.80698        2.68783        0.64876
H         -1.49313        2.11665       -0.38223
H         -2.33188       -2.00039        2.74003
H         -3.61233       -0.76068        2.59893
H         -3.38869       -1.96591        1.30999
H         -0.72498        0.74401        2.84642
H         -0.62475       -2.48509        0.04591
H          0.75075       -1.48525        1.40485
H          5.52383        0.52742        2.10320
H          4.46283        1.88984        1.73174
H          5.59421        1.29896        0.51393
H          4.38250       -0.87539        0.43131
H          3.17167       -0.26171        1.57619
H          1.80890        1.83153        2.04304
H          1.94652        2.98680        0.68816
H          0.34852        2.53801        1.31572
H          0.26458        1.11744       -1.95658
H          0.65205       -3.97519       -0.17383
H         -0.17873       -3.36972       -1.67110
H          1.62517       -1.78781       -2.03740
H          2.45131       -2.37734       -0.52986
