50
938.log
C          5.19068        1.49051        0.74672
C          4.66207        1.22823       -0.63445
O          5.25083        1.52554       -1.64128
C          3.28930        0.56980       -0.68881
N          2.97128       -0.17327        0.51760
P          1.32809       -0.28927        0.95956
C          1.57488       -1.42901        2.36739
C          1.17649        1.32359        1.82924
Rh        -0.20819       -0.78119       -0.66236
Cl        -0.39737       -2.99753        0.20961
C         -1.51356        3.67725        0.42259
C         -2.74975        3.33658       -0.35746
O         -3.46595        4.15328       -0.87738
C         -3.01624        1.84402       -0.48113
N         -2.69214        1.11736        0.73273
P         -2.08105       -0.45718        0.59345
C         -2.01620       -0.87091        2.37441
C         -3.53095       -1.49529        0.12211
C          0.04418       -1.64329       -2.71611
C         -1.31717       -1.37914       -2.36770
H          5.45267        0.54190        1.21056
H          4.42078        1.95555        1.35587
H          6.07297        2.12215        0.69524
H          2.55938        1.38141       -0.79827
H          3.22924       -0.03209       -1.60602
H          3.38062       -1.10360        0.48062
H          2.49917       -1.16014        2.87754
H          1.62594       -2.45039        1.99378
H          0.73504       -1.36060        3.05309
H          1.86697        1.35162        2.67020
H          0.15335        1.45996        2.17094
H          1.41591        2.12755        1.13654
H          0.96627       -1.19465       -1.56228
H         -0.12102        0.64219       -1.18747
H         -1.70556        3.50530        1.47952
H         -0.70684        3.01536        0.11864
H         -1.24311        4.71816        0.27052
H         -2.34127        1.47675       -1.26647
H         -4.04831        1.69289       -0.82110
H         -3.42435        1.20680        1.43074
H         -1.65598       -1.89351        2.46642
H         -1.34078       -0.19410        2.89364
H         -3.01230       -0.79720        2.81073
H         -3.23262       -2.54073        0.13633
H         -3.86599       -1.23059       -0.87995
H         -4.34292       -1.33392        0.83237
H          0.49805       -1.03450       -3.49318
H          0.35713       -2.68359       -2.74028
H         -1.94234       -2.24509       -2.17228
H         -1.82691       -0.58769       -2.91203
