46
957.log
C          3.34820        3.76646       -0.97614
C          2.20821        2.82468       -0.61482
N          2.74739        1.53997       -0.18345
P          1.67020        0.34654        0.37893
C          1.36918        0.94997        2.07909
C          3.00692       -0.91245        0.64276
O          3.53516       -1.46832       -0.28508
O          3.38561       -1.04197        1.90563
Rh         0.02957       -0.69777       -0.80227
Cl         0.65845       -2.26784        0.92714
C         -2.57693        3.01162       -0.80209
C         -1.50894        2.62304        0.21423
N         -1.87000        1.48272        1.03445
P         -1.75915       -0.07938        0.43261
C         -2.15514       -1.00939        1.95758
C         -4.41061       -0.11745       -0.27476
O         -3.17627       -0.38046       -0.48610
O         -4.61659        0.49843        0.92047
C          0.25650       -2.29367       -2.35613
C         -1.08487       -2.13140       -1.88568
H          3.90801        3.37702       -1.82356
H          4.02650        3.87224       -0.13355
H          2.95683        4.74550       -1.23920
H          1.63779        3.23516        0.22235
H          1.52969        2.71633       -1.47352
H          3.31108        1.13642       -0.93195
H          1.08915        0.09700        2.69399
H          2.28797        1.39701        2.45526
H          0.55631        1.67314        2.08046
H          4.05834       -1.73907        1.99269
H          1.15482       -1.24994       -1.69548
H         -0.23427        0.37402       -1.84084
H         -3.51826        3.23818       -0.30386
H         -2.26072        3.88742       -1.36250
H         -2.73704        2.19047       -1.49794
H         -0.58913        2.35196       -0.31259
H         -1.30013        3.46743        0.88117
H         -2.70825        1.64947        1.58149
H         -3.02803       -0.59758        2.45871
H         -2.33098       -2.04963        1.68875
H         -1.28937       -0.96729        2.61251
H         -5.55978        0.67285        1.03188
H          0.46963       -2.01420       -3.38404
H          0.80191       -3.17381       -2.02554
H         -1.48051       -2.90708       -1.23453
H         -1.82132       -1.72627       -2.57307
