36
958.log
C          3.16462        1.55540       -1.75014
C          3.25140        1.17307       -0.28974
Cl         4.16422       -0.34388       -0.09661
P          1.58661        0.81854        0.48138
C          2.09627        0.65414        2.22885
Cl         0.91795        2.69431        0.50307
Rh         0.33205       -0.80623       -0.47501
Cl         0.21220       -1.86429        1.66122
C         -1.98403        2.27552       -1.35988
C         -2.70314        0.99229       -1.00628
Cl        -4.31306        1.35689       -0.33005
P         -1.73592       -0.08678        0.18266
C         -1.89029        0.83418        1.75600
Cl        -3.05249       -1.50957        0.48106
C          0.91488       -2.76447       -1.41012
C         -0.48965       -2.54050       -1.37362
H          2.61510        0.79446       -2.30394
H          4.15859        1.65723       -2.18068
H          2.63968        2.50480       -1.84741
H          3.77649        1.93641        0.29492
H          1.20180        0.64010        2.85046
H          2.74383        1.48269        2.51776
H          2.60513       -0.30004        2.35257
H          1.65551       -1.48555       -0.82875
H          0.30857       -0.10342       -1.82265
H         -2.52711        2.81515       -2.13287
H         -1.88792        2.91987       -0.48934
H         -0.98886        2.03331       -1.73112
H         -2.87833        0.38857       -1.90372
H         -1.30886        1.75275        1.71807
H         -1.50333        0.18835        2.54466
H         -2.94034        1.05773        1.94317
H          1.41480       -2.75415       -2.37409
H          1.32965       -3.47884       -0.70480
H         -1.06396       -3.12262       -0.65898
H         -1.00351       -2.36934       -2.31617
