50
959.log
C         -0.08007        2.56871        2.56456
O         -0.78041        2.97420        1.40608
C         -1.91907        2.19922        1.12994
P         -1.57130        0.83466       -0.10427
C         -1.38668        1.80597       -1.63270
O         -3.14382        0.42586       -0.44371
C         -3.80690       -0.42439        0.35009
C         -5.02071       -0.99200       -0.31950
O         -3.42429       -0.68540        1.45969
Rh        -0.17731       -0.94075        0.27268
Cl        -0.99944       -1.57342       -1.89739
C          1.72003        3.92278       -0.86168
O          1.69486        2.56908       -1.25998
C          2.27544        1.70651       -0.31421
P          1.67592       -0.01704       -0.69583
C          1.86617       -0.03476       -2.50533
O          3.10048       -0.85287       -0.42240
C          3.55275       -0.89041        0.83664
C          4.71642       -1.82525        1.00061
O          3.06349       -0.21818        1.70367
C         -0.53493       -3.02550        0.95689
C          0.79464       -2.80032        0.49655
H          0.75475        3.25900        2.67814
H          0.29520        1.54570        2.47073
H         -0.72482        2.63445        3.44839
H         -2.66662        2.86496        0.67871
H         -2.33897        1.76171        2.04418
H         -0.43389        2.32538       -1.61542
H         -1.41101        1.11031       -2.46992
H         -2.21032        2.51343       -1.71628
H         -5.62904       -1.53216        0.39915
H         -4.68161       -1.67095       -1.10091
H         -5.59297       -0.19723       -0.79021
H         -1.33991       -1.65386        0.94156
H          0.27028       -0.52309        1.65041
H          2.74360        4.25103       -0.64954
H          1.09533        4.07802        0.02447
H          1.32180        4.49839       -1.69568
H          3.37575        1.73893       -0.37889
H          1.97709        1.97591        0.70495
H          2.87736        0.26508       -2.77356
H          1.14212        0.64878       -2.93750
H          1.65637       -1.04076       -2.86312
H          5.54749       -1.47359        0.39315
H          4.43843       -2.81539        0.64772
H          5.01324       -1.86601        2.04399
H         -0.68676       -3.21336        2.01543
H         -1.20344       -3.58645        0.30941
H          1.07236       -3.22594       -0.46491
H          1.59326       -2.81932        1.23394
