50
963.log
C         -1.25029        3.58631        0.61917
C         -0.38834        2.31902        0.68795
C         -0.19356        2.01273        2.16707
O         -1.05919        1.49037        2.83210
N          0.84594        2.54392       -0.05275
P          1.33348        1.30750       -1.08791
C          2.92984        2.03579       -1.61362
C          0.29850        1.73900       -2.54791
Rh         1.47312       -0.83880       -0.29052
Cl         1.47341        0.20559        1.88731
C         -3.79228        0.32201       -2.09022
C         -3.22375       -0.62641       -1.02748
C         -3.88087       -0.23258        0.27887
O         -4.89265       -0.72241        0.69322
N         -1.78161       -0.44146       -0.95527
P         -0.71921       -1.42219       -0.06455
C         -1.44258       -1.41511        1.60783
C         -1.16390       -3.14929       -0.55618
C          3.28218       -1.99497        0.34911
C          2.05062       -2.68610        0.57275
H         -2.18980        3.42776        1.14204
H         -0.72692        4.41906        1.08401
H         -1.45177        3.83968       -0.41881
H         -0.93498        1.48554        0.22718
H          0.64531        2.56188        2.63160
H          1.59888        2.79400        0.58534
H          2.78510        3.08533       -1.86701
H          3.65469        1.94892       -0.80480
H          3.30112        1.48862       -2.47831
H          0.46984        1.01720       -3.34346
H          0.57107        2.73736       -2.88552
H         -0.75202        1.73317       -2.26885
H          2.99608       -0.64513       -0.34929
H          1.49216       -1.42798       -1.68873
H         -3.38273        0.07757       -3.06852
H         -4.87448        0.22948       -2.13205
H         -3.53594        1.35084       -1.84614
H         -3.52320       -1.65439       -1.27991
H         -3.36907        0.59719        0.79656
H         -1.38380       -0.31831       -1.88191
H         -0.84652       -2.08471        2.22778
H         -2.47178       -1.77222        1.58129
H         -1.40135       -0.41996        2.05009
H         -0.62931       -3.85261        0.07627
H         -0.87918       -3.32010       -1.59300
H         -2.23452       -3.31089       -0.43362
H          3.95354       -2.39057       -0.40749
H          3.79507       -1.59590        1.21988
H          1.72210       -2.78536        1.60397
H          1.86087       -3.56765       -0.03319
