50
982.log
C         -4.30912        1.21417       -0.64580
N         -2.92757        1.04848       -0.23269
C         -2.60917        1.88951        0.89819
C         -2.42019        3.32291        0.49148
O         -2.47059        4.26788        1.22729
P         -2.13878       -0.45427       -0.42203
C         -3.42266       -1.73067       -0.07292
C         -2.12952       -0.57526       -2.25659
Rh        -0.17105       -0.92194        0.69234
Cl        -0.13861       -2.73298       -0.86936
C          2.67347        1.44785        1.37009
N          2.71137        0.77175        0.08490
C          3.82616        1.24074       -0.71092
C          5.12479        0.66876       -0.19345
O          6.19883        1.18423       -0.30840
P          1.20744        0.35809       -0.60101
C          1.71842       -0.41847       -2.17549
C          0.54726        1.98043       -1.20392
C          0.26075       -2.46488        2.25270
C          1.43091       -1.84401        1.71098
H         -4.48417        2.26266       -0.89684
H         -4.51779        0.61590       -1.52822
H         -5.01383        0.93252        0.14573
H         -1.65148        1.55009        1.31949
H         -3.35812        1.83367        1.70087
H         -2.19862        3.44253       -0.58845
H         -2.97729       -2.70351       -0.27387
H         -3.71262       -1.68027        0.97676
H         -4.29970       -1.59784       -0.70461
H         -1.50825        0.20611       -2.68870
H         -3.13880       -0.49666       -2.65585
H         -1.71878       -1.54821       -2.51762
H         -0.99389       -1.82332        1.62591
H         -0.25481        0.17359        1.73587
H          3.56792        1.19648        1.94438
H          2.63453        2.53826        1.25952
H          1.79181        1.12438        1.92007
H          3.90113        2.33823       -0.73823
H          3.73616        0.88464       -1.73995
H          4.99326       -0.31388        0.29911
H          2.07402        0.30445       -2.90880
H          2.47824       -1.16998       -1.96359
H          0.84988       -0.93765       -2.57671
H         -0.41627        1.84293       -1.68641
H          0.40983        2.63397       -0.34323
H          1.25032        2.43960       -1.89908
H          0.01449       -2.26061        3.29116
H          0.05412       -3.48796        1.95065
H          2.03692       -2.43998        1.03391
H          2.01655       -1.21436        2.37348
