40
983.log
C          1.78878       -1.70838       -1.68271
P          1.80434       -0.72002       -0.13323
C          2.28932       -1.96921        1.11803
C          3.48253        0.14116       -0.36281
Cl         4.78361       -1.00903       -0.71503
C          3.74465        0.92249        0.87600
O          3.13018        1.91466        1.15697
Rh         0.08544        0.72869        0.37638
Cl        -0.80367        0.57168       -1.84969
C         -1.50524       -2.33268       -0.27475
P         -1.56851       -0.75743        0.64969
C         -1.99843       -1.32926        2.33221
C         -3.19031       -0.04590        0.09958
Cl        -4.47380       -1.27100        0.24408
C         -3.27867        0.47641       -1.33051
O         -3.61537        1.60818       -1.56468
C          0.20318        3.04506        0.23460
C         -1.05449        2.42629        0.71473
H          2.53000       -1.32702       -2.38222
H          1.99320       -2.75605       -1.47189
H          0.80762       -1.60529       -2.14253
H          2.46849       -1.46556        2.06680
H          1.45969       -2.66265        1.25018
H          3.17847       -2.51466        0.80524
H          3.36429        0.80468       -1.22637
H          4.50925        0.49469        1.54877
H          0.95641        2.13406        0.02941
H          0.48628        0.73820        1.83299
H         -2.39116       -2.92497       -0.04938
H         -0.61017       -2.87879        0.02134
H         -1.45909       -2.12238       -1.34146
H         -1.13588       -1.85230        2.74224
H         -2.86204       -1.99205        2.31589
H         -2.20281       -0.46074        2.95636
H         -3.44677        0.76638        0.79038
H         -3.26188       -0.31389       -2.09507
H          0.72933        3.65627        0.96481
H          0.11967        3.55056       -0.72660
H         -1.90505        2.55224        0.04662
H         -1.32079        2.65337        1.74642
