50
985.log
C          2.21547       -3.30422        1.32205
C          2.66931       -2.35642        0.22372
P          1.30672       -1.32735       -0.46494
C          0.25731       -2.63463       -1.23634
N          2.07646       -0.74157       -1.85690
C          1.99406        0.66680       -2.20810
C          3.06614        1.44989       -1.44758
O          4.00472        0.86892       -0.94561
Rh         0.29359        0.05549        1.04627
Cl         1.60319        1.97646        0.38718
C         -1.17666        3.11252       -1.43902
C         -2.13842        2.31309       -0.57156
P         -1.58245        0.56975       -0.26725
C         -1.77205       -0.06241       -2.00240
N         -2.97834        0.01108        0.52913
C         -4.23889       -0.24366       -0.12824
C         -4.39000       -1.65939       -0.62490
O         -3.54176       -2.50158       -0.54221
C          0.21689        0.90837        3.12623
C         -0.80457        1.47692        2.39590
H          3.06529       -3.85678        1.71813
H          1.48557       -4.01697        0.94430
H          1.75609       -2.74555        2.13509
H          3.42865       -1.66630        0.60407
H          3.09651       -2.91707       -0.61578
H         -0.59178       -2.87884       -0.60352
H         -0.09338       -2.28011       -2.20100
H          0.86332       -3.52401       -1.39841
H          3.07908       -0.92406       -1.74923
H          2.21205        0.77153       -3.28020
H          1.00034        1.06706       -2.01298
H          3.07590        2.53063       -1.64934
H          1.48666       -0.36601        1.85021
H         -0.43141       -1.16297        1.56700
H         -1.53062        4.13627       -1.54804
H         -1.08904        2.67665       -2.43276
H         -0.18945        3.13826       -0.98241
H         -3.12876        2.27344       -1.03922
H         -2.25555        2.79543        0.40069
H         -2.55543        0.48277       -2.52927
H         -2.02742       -1.11838       -1.96139
H         -0.83883        0.04579       -2.54836
H         -2.73201       -0.77527        1.12422
H         -4.38225        0.43811       -0.96984
H         -5.06315       -0.05761        0.57593
H         -5.38165       -1.87112       -1.06861
H          0.00836        0.12419        3.84626
H          1.12386        1.47446        3.30767
H         -0.67283        2.48439        2.01791
H         -1.83011        1.16274        2.55564
