42
997.log
C          2.36475        0.60937        1.83565
P          1.68745        0.00912        0.25034
C          2.39502        1.14171       -1.06020
C          3.88859        1.04601       -1.03661
O          4.55180        0.33744       -1.74785
O          4.43190        1.83501       -0.10440
C          2.95871       -1.32069       -0.09045
O          3.86143       -1.63445        0.63905
O          2.72522       -1.86623       -1.27083
Rh        -0.37171       -1.02242        0.08380
Cl        -1.06714       -0.05618        2.20690
C         -1.42009        1.81150       -2.02515
P         -1.52875        0.83353       -0.47399
C         -3.30825        1.01248       -0.02451
C         -4.06434        0.12508       -0.96108
O         -3.56032       -0.40101       -1.91910
O         -5.34914       -0.02812       -0.64076
C         -0.79525        2.08887        0.66815
O          0.40213        2.24313        0.75956
O         -1.67741        2.89012        1.24859
C         -0.98724       -3.07165        0.69669
C         -2.04227       -2.30362        0.11033
H          1.57194        0.58686        2.58099
H          3.17672       -0.05400        2.13585
H          2.71848        1.63081        1.72448
H          2.06194        2.15243       -0.83307
H          2.01450        0.79175       -2.02126
H          5.39290        1.70403       -0.06802
H          3.41767       -2.50185       -1.52297
H          0.32756       -2.24775        0.69088
H         -0.04668       -1.47754       -1.31385
H         -1.84506        1.22626       -2.83666
H         -0.36828        1.99971       -2.23644
H         -1.95332        2.75743       -1.92448
H         -3.46358        0.71173        1.01523
H         -3.63584        2.05003       -0.12864
H         -5.79557       -0.61739       -1.27014
H         -1.23850        3.49187        1.87457
H         -0.60680       -3.91963        0.13523
H         -1.03499       -3.24693        1.76876
H         -2.82850       -1.95812        0.77699
H         -2.39949       -2.59684       -0.87197
