18
Rh_ts.log
Rh        -0.27797       -0.24382       -0.39311
H         -0.78834       -1.68019       -0.13322
H         -0.61829       -0.41760       -1.86023
P          1.85196       -1.00440       -0.41558
H          2.86400       -0.10932       -0.10984
H          2.22317       -1.94373        0.52751
H          2.53938       -1.60526       -1.46928
P          0.29123        1.93307       -0.43804
H          0.19111        2.82130       -1.50653
H         -0.30267        2.77407        0.48351
H          1.59343        2.27476       -0.11469
Cl         0.55907        0.19314        1.84181
C         -2.16141       -1.22560        0.29564
H         -2.71906       -1.88838       -0.36014
H         -2.13715       -1.56178        1.32976
C         -2.28863        0.18662        0.07109
H         -2.37397        0.81914        0.95244
H         -2.91489        0.50907       -0.75634
