36
10.log
C         -3.31541        0.08578        0.79015
P         -1.63279       -0.54767        0.44980
C         -1.29820       -1.43744        2.01248
C         -2.13489       -2.00872       -0.61823
F         -2.85719       -1.54723       -1.66674
F         -1.03857       -2.60562       -1.13609
Rh        -0.19524        0.96859       -0.45011
Cl        -0.41313        1.83351        1.77923
C          3.29358        0.60086       -0.80769
P          1.79329       -0.00594        0.05202
C          2.38029       -0.09285        1.77732
C          1.97268       -1.82119       -0.40468
F          3.26268       -2.22358       -0.27621
F          1.26734       -2.57356        0.47168
C         -0.62457        3.00996       -1.25260
C          0.76828        2.73155       -1.11150
H         -3.21632        0.91847        1.48562
H         -3.94100       -0.69031        1.23185
H         -3.76725        0.44285       -0.13503
H         -2.18834       -1.98762        2.31829
H         -0.46425       -2.12431        1.89408
H         -1.05301       -0.68961        2.76521
H         -2.73366       -2.78289       -0.10979
H         -1.44671        1.73916       -0.87702
H         -0.13850        0.35559       -1.83574
H          3.13734        0.55369       -1.88449
H          4.16091        0.00167       -0.53353
H          3.46190        1.63740       -0.52066
H          2.46287        0.92679        2.15276
H          1.64694       -0.62003        2.38589
H          3.34603       -0.59603        1.82603
H          1.62980       -2.06401       -1.42009
H         -1.02347        3.11282       -2.25736
H         -1.07550        3.68460       -0.53005
H          1.28933        3.23275       -0.29951
H          1.35551        2.63922       -2.02078
