44
1001.log
C          0.54225        1.78370        2.49607
C          1.91660        1.38051        1.99653
P          2.07392        0.76733        0.25204
C          2.14619        2.33515       -0.72079
Br         0.38581        3.06198       -0.90981
O          3.69157        0.64128        0.20241
C          4.41985       -0.46660        0.72382
Rh         0.98072       -1.04657       -0.60918
Cl         1.46422       -1.98220        1.54141
C         -1.74710       -1.31799        2.67234
C         -1.95067       -1.89083        1.27842
P         -1.25878       -0.88903       -0.09808
C         -2.07433        0.77407        0.10870
Br        -3.98235        0.60238        0.38514
O         -2.23978       -1.53868       -1.20674
C         -2.26771       -1.11475       -2.55896
C          1.90951       -2.87716       -1.54164
C          0.50468       -2.98795       -1.34998
H          0.14114        2.63193        1.94524
H          0.60170        2.06038        3.54746
H         -0.13699        0.93964        2.40803
H          2.28709        0.54274        2.59727
H          2.63357        2.20516        2.08522
H          2.52007        2.12232       -1.72207
H          2.77429        3.08087       -0.23264
H          5.02397       -0.88907       -0.08128
H          5.07785       -0.10433        1.51469
H          3.75854       -1.23397        1.13124
H          2.37824       -1.42789       -1.10644
H          0.73030       -0.37678       -1.94995
H         -2.23011       -0.34884        2.78380
H         -0.68589       -1.22426        2.89323
H         -2.18232       -1.99247        3.40729
H         -1.46396       -2.86756        1.21172
H         -3.01300       -2.02511        1.05484
H         -1.67336        1.34458        0.94078
H         -1.93873        1.34649       -0.81027
H         -2.94131       -0.26322       -2.67917
H         -2.64640       -1.95235       -3.14517
H         -1.27079       -0.83681       -2.91313
H          2.28410       -2.81302       -2.55901
H          2.55661       -3.43142       -0.86763
H          0.16003       -3.63904       -0.55133
H         -0.12706       -3.01126       -2.23218
