48
1003.log
C          2.34218        2.91520       -1.27398
C          2.38043        1.39998       -1.42265
P          1.86154        0.51348        0.10475
C          3.21613        0.95902        1.27265
C          2.47744       -1.17362       -0.36959
O          2.85415       -1.41816       -1.49151
C          2.47736       -2.25094        0.68690
O          2.70895       -3.51300        0.13536
Rh        -0.25666        0.57851        1.00708
Cl        -0.98846        2.43787       -0.36805
C         -1.70158       -3.02899        1.56359
C         -2.40087       -2.18522        0.50863
P         -1.28314       -0.99040       -0.35151
C         -0.41391       -2.15639       -1.47639
C         -2.59499       -0.30882       -1.50268
O         -3.76270       -0.41843       -1.24477
C         -2.01891        0.34969       -2.73153
O         -0.64844        0.54801       -2.57890
C         -1.11922        1.76822        2.69361
C         -2.04172        0.84655        2.10426
H          3.07864        3.26133       -0.55136
H          2.55900        3.38512       -2.23059
H          1.35558        3.24032       -0.95186
H          1.70307        1.07784       -2.21810
H          3.38872        1.05423       -1.67354
H          3.11795        2.01507        1.52123
H          3.11366        0.37873        2.18778
H          4.19120        0.78073        0.81968
H          1.51500       -2.24763        1.21123
H          3.26089       -2.00202        1.42124
H          3.05023       -3.36973       -0.76326
H          0.24745        1.64629        1.99134
H          0.17512       -0.51307        1.95821
H         -2.41954       -3.67922        2.05954
H         -1.23748       -2.39367        2.31585
H         -0.92924       -3.65437        1.12025
H         -3.20743       -1.60223        0.96049
H         -2.84739       -2.82643       -0.25825
H          0.28362       -1.62670       -2.11922
H         -1.15188       -2.67660       -2.08703
H          0.12720       -2.88441       -0.87419
H         -2.17224       -0.32521       -3.58233
H         -2.55896        1.28361       -2.93464
H         -0.55227        1.31747       -1.96632
H         -0.77677        1.56242        3.70401
H         -1.27442        2.82560        2.49755
H         -2.84373        1.25808        1.49678
H         -2.34794       -0.00395        2.70696
