42
1010.log
C         -2.58887       -2.73018       -0.66499
P         -2.08724       -0.95286       -0.61711
O         -1.87231       -0.67499       -2.17096
C         -3.79908       -0.21706       -0.43722
C         -3.84533        0.89558        0.58776
N         -2.74873        1.82910        0.34471
O         -1.98461        1.55714       -0.56063
O         -2.60006        2.77542        1.09114
Rh        -0.26930       -0.59995        0.75004
Cl         0.79030       -1.81302       -1.05687
C          0.49792        1.62072       -2.00521
P          0.61788        1.33072       -0.18889
O          0.34783        2.77843        0.44547
C          2.46060        1.48866       -0.05775
C          3.22777        0.47497       -0.88859
N          4.50297        0.09127       -0.26435
O          4.52847       -0.04206        0.93801
O          5.44046       -0.09912       -1.00211
C          0.63618       -1.95450        2.30952
C          1.40408       -0.78517        2.05706
H         -2.97879       -3.04649        0.29947
H         -3.34211       -2.86635       -1.44072
H         -1.71609       -3.33418       -0.90796
H         -0.95802       -0.92324       -2.38043
H         -4.49852       -0.99912       -0.14579
H         -4.06836        0.15094       -1.42936
H         -3.69353        0.50885        1.60207
H         -4.78325        1.45834        0.57519
H         -0.68964       -1.89978        1.44125
H         -1.00139        0.17465        1.82315
H          1.01960        2.55013       -2.22615
H          0.96823        0.79514       -2.53123
H         -0.53755        1.69923       -2.31811
H         -0.56124        2.94336        0.72619
H          2.72773        1.37864        0.99568
H          2.69783        2.51327       -0.35610
H          3.45730        0.83035       -1.89394
H          2.64069       -0.45461       -0.97816
H          0.12748       -2.04264        3.26424
H          1.01100       -2.89801        1.92386
H          2.34546       -0.92023        1.53533
H          1.43928       -0.02637        2.83318
