38
102.log
C          3.45043       -0.73489        0.61676
P          2.00162       -0.01482       -0.21598
C          2.72325        0.32042       -1.90461
O          2.94833       -0.90701       -2.52993
C          1.93955        1.70936        0.44876
O          1.10721        2.50716        0.10261
O          2.90992        1.96643        1.30612
Rh         0.04678       -1.11441       -0.04897
Cl         0.40379       -0.25037        2.20062
C         -0.97660        1.85750       -1.97168
P         -1.30804        0.75279       -0.54441
C         -1.69846        1.94280        0.84966
O         -2.25051        1.21298        1.92063
C         -3.10714        0.37221       -0.94932
O         -3.44353        0.22997       -2.09257
O         -3.94238        0.26730        0.06721
C         -0.96776       -3.00268        0.69142
C         -1.93986       -2.05492        0.46828
H          3.18654       -0.99684        1.64055
H          3.72630       -1.63616        0.06853
H          4.27842       -0.02680        0.61492
H          2.05743        0.97157       -2.48872
H          3.69801        0.80861       -1.80032
H          2.10625       -1.38135       -2.60095
H          2.83168        2.85880        1.68812
H          1.01504       -2.25424        0.14566
H         -0.05462       -1.57528       -1.48395
H         -1.84714        1.84867       -2.62715
H         -0.11599        1.49490       -2.52832
H         -0.76696        2.86222       -1.61096
H         -2.45278        2.66167        0.50780
H         -0.80140        2.48783        1.15181
H         -1.51256        0.69393        2.31588
H         -3.51283        0.51144        0.92516
H         -0.81867       -3.80993       -0.01604
H         -0.62177       -3.19415        1.70237
H         -2.37167       -1.53604        1.31853
H         -2.56948       -2.12740       -0.41188
