34
1024.log
C          3.14926       -1.45227       -0.10472
P          1.70216       -0.35567       -0.27017
C          2.61559        0.96628       -1.24286
O          2.77543        0.86654       -2.42062
O          3.10525        1.90740       -0.45831
N          1.71888        0.43834        1.35070
O          0.70746        1.04751        1.68640
O          2.73684        0.41556        1.98892
Rh        -0.39769       -1.16608       -0.51240
Cl         0.41091       -1.95605        1.63409
C         -2.00805        0.88914        2.09856
P         -1.30133        0.67978        0.43446
C         -0.54176        2.30347       -0.08480
O          0.44623        2.36208       -0.76241
O         -1.20629        3.32927        0.39890
N         -2.84817        1.03482       -0.46155
O         -3.84626        0.45024       -0.10946
O         -2.76590        1.79993       -1.39589
C         -1.21806       -3.17348       -1.03593
C         -2.17516       -2.28365       -0.44741
H          3.96559       -0.92685        0.39394
H          2.86813       -2.33280        0.47209
H          3.45076       -1.74802       -1.11042
H          3.56188        2.60320       -0.96334
H          0.10642       -2.44923       -1.19574
H         -0.73315       -0.61565       -1.87801
H         -2.19278        1.94513        2.29284
H         -2.94190        0.32562        2.12341
H         -1.31404        0.48861        2.83251
H         -0.83733        4.18172        0.10657
H         -1.35477       -3.43780       -2.08019
H         -0.86288       -3.99700       -0.42156
H         -2.48171       -2.48973        0.57590
H         -2.98399       -1.91936       -1.07517
