44
1028.log
C         -4.56782        1.19920       -1.52880
C         -3.81912        0.75482       -0.28027
C         -2.67004        1.70204        0.03627
O         -1.95045        1.29681        1.19774
P         -1.18725       -0.09332        1.35010
C         -2.29678       -1.00962        2.49304
F         -0.21224        0.46599        2.52264
Rh        -0.01122       -1.22861       -0.23374
Cl        -0.27155        0.47521       -1.88774
C          2.60048        2.69518       -1.67472
C          2.23445        3.26227       -0.30948
C          1.38975        2.28817        0.50343
O          2.16808        1.15702        0.90122
P          1.95697       -0.34965        0.48082
C          2.83290       -1.09917        1.89176
F          3.17926       -0.51117       -0.59181
C         -0.51391       -2.67664       -1.86252
C          0.88980       -2.40814       -1.70794
H         -5.37440        0.50664       -1.75509
H         -4.99248        2.19008       -1.38717
H         -3.88919        1.23260       -2.37709
H         -3.39381       -0.24164       -0.44082
H         -4.49810        0.70412        0.57460
H         -3.04080        2.70358        0.27020
H         -1.99428        1.75504       -0.82243
H         -2.68018       -0.31042        3.23315
H         -1.72232       -1.79225        2.98013
H         -3.11787       -1.46128        1.94443
H         -1.25728       -1.92729       -0.82800
H          0.14611       -2.35666        0.77403
H          3.21863        1.80798       -1.56431
H          1.70159        2.42034       -2.22114
H          3.15309        3.42883       -2.25668
H          1.65616        4.18039       -0.43014
H          3.14005        3.49786        0.25348
H          1.04047        2.75752        1.42864
H          0.52479        1.96844       -0.08357
H          3.74149       -0.52991        2.07093
H          2.19204       -1.06576        2.76665
H          3.07378       -2.13094        1.65396
H         -0.86285       -3.67528       -1.61380
H         -0.99941       -2.25743       -2.74030
H          1.36928       -1.80913       -2.47727
H          1.51837       -3.21492       -1.34003
