46
1031.log
C         -3.83886        1.33166       -1.13662
N         -2.72578        0.39796       -1.07967
C         -2.83211       -0.62355       -2.11246
P         -2.08238       -0.16489        0.37931
C         -3.43142       -1.18551        1.14821
C         -2.30965        1.31047        1.47247
Cl        -1.34663        2.64109        0.82767
Rh         0.01779       -1.06174        0.58352
Cl         0.13632       -2.13798       -1.55277
C          1.99219        1.97727        1.67431
N          1.67705        1.99966        0.26029
C          2.42993        3.02212       -0.43747
P          1.16396        0.60013       -0.50924
C          0.29179        1.23444       -1.99200
C          2.69035       -0.01235       -1.40940
Cl         4.01892       -0.11319       -0.24258
C          0.70091       -2.99794        1.46976
C          1.77097       -2.12739        1.09670
H         -3.95560        1.64133       -2.17654
H         -4.78975        0.89487       -0.80860
H         -3.62595        2.22187       -0.55050
H         -2.00893       -1.33138       -2.01464
H         -3.77855       -1.17264       -2.05308
H         -2.76919       -0.15071       -3.09481
H         -3.51571       -2.12099        0.59612
H         -3.17707       -1.41069        2.18176
H         -4.38357       -0.65583        1.11133
H         -3.34862        1.63229        1.55564
H         -1.91867        1.06606        2.46117
H         -0.65741       -2.30983        1.16518
H          0.02859       -0.42811        1.95555
H          1.46620        1.14898        2.14611
H          1.66196        2.91420        2.13116
H          3.06640        1.86125        1.85257
H          2.19516        3.99283        0.00639
H          2.15588        3.05584       -1.48796
H          3.51135        2.86059       -0.35624
H         -0.06152        0.36619       -2.54559
H          0.94369        1.82144       -2.63637
H         -0.56256        1.83054       -1.68131
H          2.99376        0.69001       -2.18857
H          2.52612       -0.99918       -1.84050
H          0.52932       -3.17087        2.52867
H          0.53829       -3.87727        0.85278
H          2.35830       -2.42435        0.23373
H          2.36402       -1.68375        1.89220
