40
1037.log
C          1.83481        1.10045        2.06517
P          1.98580        0.53123        0.33035
C          3.66795       -0.22018        0.45260
O          4.63082        0.21362       -0.11421
C          2.43957        2.10083       -0.54376
C          1.13073        2.82611       -0.62416
O          0.59943        3.34620        0.32683
O          0.58126        2.75807       -1.82608
Rh         0.51756       -0.97288       -0.55896
Cl         1.10223       -2.10980        1.46967
C         -1.74366       -0.50850        2.13465
P         -1.39351       -0.15271        0.37843
C         -1.71825        1.67254        0.29490
O         -1.89921        2.22269       -0.75765
C         -2.95982       -0.64961       -0.47970
C         -4.11830        0.12309        0.07596
O         -4.00301        1.07521        0.80656
O         -5.29509       -0.34939       -0.31619
C          0.90743       -2.86594       -1.67661
C         -0.46265       -2.69185       -1.30647
H          2.75785        1.59761        2.36588
H          1.00391        1.80235        2.13364
H          1.65523        0.23298        2.69861
H          3.70606       -1.12600        1.08685
H          2.82376        1.86218       -1.53550
H          3.17462        2.64781        0.04812
H         -0.34842        3.05449       -1.80555
H          1.72185       -1.61738       -1.26114
H          0.22288       -0.19802       -1.82711
H         -0.90142       -0.15532        2.72838
H         -1.80971       -1.58835        2.26426
H         -2.66037       -0.02206        2.46090
H         -1.65488        2.23105        1.24461
H         -2.84345       -0.39257       -1.53781
H         -3.14091       -1.72415       -0.41128
H         -6.02493        0.18292        0.04163
H          1.15595       -2.82278       -2.73295
H          1.48425       -3.60072       -1.12147
H         -0.83794       -3.32331       -0.50461
H         -1.17733       -2.52539       -2.10787
