44
1038.log
C         -5.34107       -0.28495       -1.72675
C         -3.86092       -0.60426       -1.55871
C         -3.47388       -0.72776       -0.08877
P         -1.65677       -0.91832        0.11267
N         -1.45671       -2.53072       -0.34043
C         -1.55898       -1.13319        1.96096
O         -0.73608       -1.88045        2.46132
Rh        -0.28876        0.83836       -0.37346
Cl        -0.66500        1.05612        2.03664
C          5.10564       -1.43604       -1.98010
C          4.08301       -1.38175       -0.85101
C          2.88126       -0.53131       -1.25088
P          1.64887       -0.26135        0.08572
N          1.54486       -1.76313        0.82058
C          2.67359        0.73624        1.27229
O          3.62426        1.40033        0.96815
C         -0.71591        3.00796       -0.72395
C          0.68074        2.70416       -0.57992
H         -5.95209       -1.06705       -1.28147
H         -5.59750       -0.20696       -2.78048
H         -5.58642        0.65819       -1.24317
H         -3.25773        0.18395       -2.02133
H         -3.63014       -1.54107       -2.07013
H         -3.76977        0.17489        0.45658
H         -3.95140       -1.59741        0.37250
H         -1.33692       -2.63425       -1.34354
H         -0.64389       -2.92982        0.12572
H         -2.43418       -0.78210        2.52892
H         -1.50527        1.74607       -0.66305
H         -0.15719        0.55132       -1.85074
H          4.65904       -1.85336       -2.88005
H          5.95237       -2.05654       -1.69633
H          5.47276       -0.43832       -2.20862
H          3.75334       -2.39622       -0.61740
H          4.55510       -0.95772        0.03850
H          2.35605       -0.98236       -2.09660
H          3.20668        0.46968       -1.55006
H          0.76850       -1.84507        1.49477
H          2.40803       -2.07167        1.25851
H          2.31789        0.66925        2.32287
H         -1.05483        3.34271       -1.70046
H         -1.19278        3.53645        0.09806
H          1.16470        3.03282        0.33659
H          1.31022        2.81260       -1.45844
