42
1043.log
C          2.64127        2.74852       -1.12406
C          3.09109        1.62414       -0.20361
P          1.62988        0.76454        0.53210
O          1.05725        1.90894        1.52891
C          2.46198       -0.39231        1.72344
C          2.82639       -1.60685        0.91017
O          3.17337       -1.48593       -0.24325
Rh         0.06720       -0.23013       -0.78269
Cl         0.39948       -2.22830        0.61113
C         -3.29249       -1.99205        0.89086
C         -3.32553       -0.53609        0.44189
P         -1.65441        0.24739        0.63658
O         -1.29803       -0.14661        2.15240
C         -2.11707        2.00307        0.97662
C         -2.69419        2.57142       -0.26731
O         -2.90609        1.91303       -1.24694
C          0.20508       -1.42409       -2.64917
C         -1.12855       -1.27871       -2.15744
H          3.49877        3.25394       -1.56361
H          2.04793        3.48076       -0.57794
H          2.02447        2.34632       -1.92536
H          3.66587        0.88237       -0.75670
H          3.71383        2.01569        0.60985
H          1.73477        2.32051        2.07752
H          3.38460        0.06241        2.10052
H          1.80442       -0.62708        2.56223
H          2.92473       -2.55695        1.45651
H          1.20536       -0.63915       -1.72158
H         -0.15280        1.02991       -1.57164
H         -3.16306       -2.05582        1.96946
H         -4.22158       -2.49346        0.62699
H         -2.46791       -2.52531        0.42169
H         -4.04138        0.02853        1.04606
H         -3.61685       -0.45905       -0.60406
H         -0.77539       -0.96669        2.11921
H         -2.82913        2.04960        1.80462
H         -1.22561        2.55942        1.27318
H         -2.91472        3.65741       -0.24769
H          0.46839       -0.91080       -3.56904
H          0.67833       -2.39719       -2.54858
H         -1.59741       -2.16329       -1.73517
H         -1.81255       -0.65185       -2.72195
