48
1045.log
C          1.27019        2.72803       -1.96832
C          2.34738        1.76378       -1.49590
P          1.71804        0.59284       -0.21108
C          1.38913        1.80337        1.05150
N          1.11613        2.58037        1.84858
N          3.21248        0.04500        0.39262
C          3.32810       -0.24135        1.81684
C          3.79075       -1.02468       -0.40329
Rh         0.00430       -0.82789       -0.71654
Cl         0.43947       -1.85552        1.41255
C         -3.22263        0.91794       -2.17796
C         -3.35634        0.33129       -0.78015
P         -1.74828        0.35266        0.13714
C         -1.55966        2.12625        0.10879
N         -1.44074        3.25883       -0.01732
N         -2.34401        0.21969        1.71988
C         -2.85406       -1.09961        2.07077
C         -1.48134        0.74194        2.77174
C          0.02781       -2.88627       -1.60061
C         -1.27737       -2.43872       -1.21939
H          0.93045        3.36376       -1.15317
H          1.65404        3.36114       -2.76555
H          0.40876        2.17923       -2.34822
H          2.70901        1.16879       -2.33991
H          3.19550        2.29706       -1.05682
H          2.87851        0.56751        2.38991
H          2.84865       -1.18239        2.09974
H          4.39013       -0.29803        2.06272
H          3.33882       -1.99941       -0.17790
H          3.66018       -0.80844       -1.46455
H          4.85896       -1.08310       -0.18798
H          1.05107       -1.76990       -1.34304
H         -0.21192       -0.18289       -2.07082
H         -4.16960        0.84460       -2.70929
H         -2.93330        1.96578       -2.13008
H         -2.46526        0.38102       -2.74738
H         -3.70855       -0.70140       -0.84672
H         -4.06665        0.90543       -0.17780
H         -3.47382       -1.48532        1.26208
H         -3.47142       -0.99975        2.96503
H         -2.04996       -1.81143        2.28034
H         -0.61285        0.10331        2.96091
H         -2.06878        0.80973        3.68853
H         -1.13503        1.73953        2.50187
H          0.23165       -3.00653       -2.66088
H          0.49079       -3.64838       -0.97955
H         -1.71962       -2.90840       -0.34455
H         -1.98918       -2.24446       -2.01756
