46
106.log
C          4.31291       -2.29517       -1.64850
C          3.67809       -1.38626       -0.60446
C          2.48092       -2.05612        0.06126
O          1.96833       -1.21273        1.08461
P          0.38492       -0.95944        1.21982
C          0.49612        0.23624        2.60753
O         -0.05014       -2.29516        2.00090
Rh        -0.99720       -0.58483       -0.56598
Cl        -2.62830       -0.94920        1.17733
C          3.86693        2.81119       -0.16856
C          2.45351        3.15132        0.28451
C          1.43336        2.20617       -0.33751
O          0.14969        2.50720        0.19776
P         -1.15126        1.64560       -0.25409
C         -2.26820        2.35411        1.01103
O         -1.62017        2.41876       -1.59277
C         -2.12129       -1.99675       -1.89028
C         -2.47160       -0.61183       -2.05684
H          4.65891       -3.21937       -1.19187
H          3.59206       -2.54367       -2.42355
H          5.16210       -1.80093       -2.11280
H          3.34239       -0.45942       -1.07376
H          4.40852       -1.13132        0.16556
H          2.77888       -3.00562        0.51784
H          1.70121       -2.25731       -0.68624
H         -0.47763        0.28094        3.08991
H          0.77986        1.22498        2.26625
H          1.23463       -0.15510        3.30441
H         -1.02211       -2.30726        2.02558
H         -1.04150       -2.09560       -0.90117
H          0.09174       -0.38825       -1.59887
H          4.58040        3.50429        0.26903
H          3.94645        2.87195       -1.25140
H          4.12966        1.80258        0.14031
H          2.38378        3.07413        1.37092
H          2.20493        4.17731        0.00664
H          1.68656        1.16502       -0.10342
H          1.41582        2.32036       -1.42739
H         -3.29399        2.14981        0.71338
H         -2.08726        1.88563        1.97216
H         -2.09550        3.42682        1.08370
H         -1.65908        3.37373       -1.47142
H         -1.61935       -2.48889       -2.71928
H         -2.85241       -2.63250       -1.39663
H         -3.44299       -0.30222       -1.68046
H         -2.20207       -0.13059       -2.99195
