32
1061.log
C          2.59372        0.67534       -2.03282
P          1.77081        0.05904       -0.51488
C          1.67450        1.57808        0.39522
N          1.51354        2.58274        0.92370
C          3.17702       -0.73899        0.37208
Cl         4.54647        0.38617        0.53231
Rh        -0.23171       -0.99131       -0.48430
Cl         0.27143       -0.65794        1.84026
C         -1.03446        2.30130       -1.62382
P         -1.48298        0.88620       -0.54365
C         -3.14029        0.66078       -1.14665
N         -4.19073        0.49504       -1.57079
C         -1.91512        1.75809        1.02329
Cl        -3.00136        0.66642        1.90715
C         -0.80511       -3.13137       -0.08830
C         -1.90942       -2.21999       -0.09502
H          3.49145        1.24327       -1.79051
H          2.85269       -0.18531       -2.65004
H          1.89522        1.30085       -2.58795
H          3.51341       -1.61529       -0.18926
H          2.85364       -1.03037        1.37424
H          0.44754       -2.37857       -0.42758
H         -0.40250       -1.14968       -1.98893
H         -0.88110        1.93025       -2.63700
H         -0.11341        2.75774       -1.26093
H         -1.83496        3.04138       -1.62473
H         -2.44292        2.69549        0.83369
H         -1.02324        1.92920        1.63025
H         -0.75071       -3.86082       -0.89146
H         -0.49308       -3.52157        0.87723
H         -2.36332       -1.98548        0.86444
H         -2.62530       -2.29381       -0.90950
