42
1064.log
C          5.74737        0.39964        0.04856
C          4.28040        0.19214        0.40002
C          3.37109        1.12646       -0.38941
P          1.64172        0.82134        0.16365
O          1.46516        1.35940        1.54755
N          0.84612        2.13667       -0.86167
O          1.50326        3.02739       -1.32542
O         -0.37959        2.09760       -0.90060
Rh         0.43010       -1.06896       -0.27682
Cl         0.07952       -1.12075        2.13359
C         -3.99238        2.85663        1.46068
C         -3.40664        2.00355        0.34309
C         -2.21678        1.19390        0.84727
P         -1.47515        0.18506       -0.52054
O         -2.04566        0.66234       -1.91053
N         -2.78674       -1.12110       -0.30578
O         -3.46292       -1.37383       -1.29338
O         -2.88788       -1.68001        0.76193
C          0.95611       -3.24811       -0.34163
C         -0.43614       -2.98149       -0.55538
H          6.04880        1.42144        0.26633
H          5.91577        0.21046       -1.00935
H          6.37693       -0.27480        0.62400
H          4.12674        0.37261        1.46752
H          3.99882       -0.84609        0.19340
H          3.60865        2.17075       -0.16993
H          3.46312        0.94999       -1.46219
H          0.65808        0.03979        2.30482
H          1.69046       -1.95150       -0.15717
H          0.68067       -0.93990       -1.74934
H         -4.83761        3.43223        1.09223
H         -3.24545        3.54834        1.84293
H         -4.33425        2.23047        2.28215
H         -3.07502        2.64249       -0.47688
H         -4.17904        1.33174       -0.04217
H         -2.51714        0.50570        1.64163
H         -1.44954        1.85877        1.24685
H         -2.72057        0.01630       -2.21071
H          1.52941       -3.62051       -1.18547
H          1.23693       -3.71204        0.60059
H         -1.11851       -3.26023        0.24442
H         -0.83500       -3.17464       -1.54768
