38
107.log
C         -1.52099        3.06416        0.69703
O         -0.62835        2.11798        0.15042
C          0.71444        2.46855        0.35047
P          1.74814        1.12473       -0.38355
C          3.37639        1.55584        0.32681
F          1.97561        1.87283       -1.82936
Rh         0.93532       -0.97535       -0.26864
Cl         0.98683       -0.18609        1.99695
C         -4.55610       -0.30948        0.23819
O         -3.53042        0.53411        0.71443
C         -2.32070       -0.11801        0.98221
P         -1.24505       -0.41130       -0.51943
C         -1.90228        0.64489       -1.86084
F         -2.07233       -1.75999       -0.99051
C          1.88829       -2.89978        0.34438
C          0.45533       -2.94273        0.26728
H         -2.52603        2.67133        0.56351
H         -1.32736        3.21104        1.76594
H         -1.42334        4.02791        0.18322
H          0.94614        2.56094        1.42053
H          0.95806        3.41472       -0.16040
H          3.51885        2.63480        0.28614
H          4.15184        1.06326       -0.25703
H          3.41480        1.20486        1.35425
H          2.36207       -1.54209       -0.09403
H          0.98223       -1.33963       -1.73688
H         -4.75733       -1.11697        0.95080
H         -5.44254        0.31565        0.14030
H         -4.31090       -0.74882       -0.73222
H         -2.48423       -1.10781        1.43225
H         -1.76375        0.49581        1.68920
H         -2.76940        1.20052       -1.51187
H         -2.17573       -0.01322       -2.68267
H         -1.13034        1.33354       -2.18810
H          2.44730       -3.48437       -0.38070
H          2.32992       -2.90686        1.33798
H         -0.08638       -2.98872        1.20945
H          0.00861       -3.54609       -0.51721
