48
1078.log
C         -5.26266       -0.16712       -0.20248
C         -3.86921       -0.70982       -0.05321
O         -3.32947       -1.38913       -0.89068
C         -3.14133       -0.31611        1.21418
C         -2.73335       -1.54319        2.02227
P         -1.59699        0.57373        0.61610
C         -1.25247        1.62678        2.08249
C         -2.47899        1.80774       -0.30965
N         -3.10318        2.57340       -0.89054
Rh        -0.06366       -0.44384       -0.69936
Cl         0.47697        1.92584       -0.86700
C          3.99978        2.26288       -0.31857
C          3.50820        0.86505       -0.13390
O          3.54545        0.02722       -1.00484
C          2.92426        0.46553        1.20607
C          2.37953        1.59691        2.06163
P          1.64763       -0.82702        0.74439
C          1.24438       -1.51907        2.40516
C          2.77025       -2.13259        0.31240
N          3.45896       -3.01953        0.08623
C         -0.10422       -0.74675       -2.93749
C          1.13899       -1.08245       -2.35789
H         -5.20991        0.91671       -0.30173
H         -5.85568       -0.40176        0.67896
H         -5.73381       -0.58246       -1.08920
H         -3.74804        0.36760        1.81832
H         -3.61366       -2.08609        2.36231
H         -2.13482       -2.20422        1.39681
H         -2.14756       -1.25350        2.89356
H         -0.82707        1.03302        2.88982
H         -2.17634        2.09864        2.41864
H         -0.54328        2.39698        1.78608
H         -1.15372       -0.29583       -1.75144
H         -0.49883       -1.87062       -0.48285
H          4.58482        2.32994       -1.23203
H          4.58607        2.59594        0.53321
H          3.12605        2.90712       -0.41532
H          3.71523       -0.07370        1.74928
H          1.89102        1.20323        2.95138
H          3.18266        2.25536        2.38563
H          1.66332        2.17742        1.48569
H          0.58276       -0.84667        2.94787
H          2.15086       -1.69548        2.98437
H          0.72391       -2.46410        2.25362
H         -0.74482       -1.54343       -3.30188
H         -0.17633        0.17962       -3.50131
H          1.97627       -0.40958       -2.51203
H          1.42002       -2.12980       -2.29662
