44
1079.log
C         -2.00329       -1.71964       -1.70879
P         -1.91760       -0.26707       -0.59138
C         -3.29752        0.70919       -1.31629
C         -2.75142       -0.96817        0.96687
N         -2.95626       -0.01410        2.02063
N         -3.98389       -1.59735        0.53682
Rh         0.05218        0.90436       -0.41818
Cl         0.09511        0.85866        1.98636
C          0.85791       -2.24965        0.84394
P          1.44890       -0.89016       -0.22948
C          1.94540       -1.82754       -1.73060
C          3.10477       -0.60116        0.59778
N          3.76740       -1.87473        0.82243
N          3.84301        0.37499       -0.16632
C          0.39081        3.11781       -0.30496
C          1.59599        2.34945       -0.34248
H         -1.80183       -1.37770       -2.72269
H         -2.99726       -2.15807       -1.64309
H         -1.25639       -2.45925       -1.43128
H         -3.57127        1.52806       -0.65070
H         -2.94452        1.13399       -2.25550
H         -4.15992        0.07217       -1.50387
H         -2.07484       -1.74646        1.33973
H         -2.05601        0.29101        2.39310
H         -3.43785        0.81172        1.67426
H         -4.26761       -2.30248        1.20783
H         -4.72156       -0.90014        0.51585
H         -0.81495        2.17434       -0.40152
H          0.11039        0.91322       -1.93352
H          1.66254       -2.96817        0.98807
H          0.56977       -1.82040        1.80225
H         -0.00839       -2.72985        0.39319
H          1.04191       -2.12993       -2.25632
H          2.51548       -1.17807       -2.39212
H          2.52437       -2.71058       -1.46652
H          2.86083       -0.16884        1.57545
H          4.24215       -2.18503       -0.01905
H          4.45169       -1.81405        1.56746
H          4.10892        0.00490       -1.07215
H          4.67834        0.68812        0.31642
H          0.15229        3.73221       -1.16917
H          0.12704        3.58215        0.64186
H          2.17472        2.28803        0.57229
H          2.20973        2.41065       -1.23523
