50
1081.log
C          1.72990        0.46584        2.88292
P          1.67907        0.67521        1.05765
C          2.81014        2.10540        0.86727
C          2.80893       -0.70516        0.57295
C          3.46449       -0.56932       -0.80682
N          4.28409       -1.70714       -1.17180
N          5.36406       -1.89426       -0.19764
Rh        -0.38338        0.99240        0.10380
Cl         0.73655        0.94400       -2.01276
C         -0.31606       -2.13387       -1.49360
P         -1.01113       -1.19133       -0.08703
C         -0.65026       -2.33452        1.30957
C         -2.80077       -1.57087       -0.32672
C         -3.65786       -1.22039        0.89315
N         -5.08835       -1.23927        0.64552
N         -5.44348       -0.23568       -0.35937
C         -1.35154        2.87520       -0.61140
C         -2.10525        1.69396       -0.90046
H          1.18629        1.29013        3.34055
H          1.23770       -0.46482        3.15733
H          2.75772        0.45810        3.24321
H          2.39819        2.95429        1.41316
H          3.80088        1.86558        1.25347
H          2.87286        2.36217       -0.18923
H          2.23255       -1.63539        0.60002
H          3.59411       -0.77371        1.33408
H          2.70753       -0.45019       -1.58414
H          4.11005        0.31227       -0.82999
H          3.72390       -2.55785       -1.11360
H          5.94793       -1.06109       -0.28125
H          5.92301       -2.66732       -0.55586
H         -0.08331        2.49566        0.18092
H         -1.07047        1.06858        1.45667
H         -0.65362       -3.16983       -1.47086
H          0.77063       -2.09184       -1.45544
H         -0.63332       -1.65393       -2.41809
H         -1.06161       -1.91509        2.22524
H         -1.09267       -3.31218        1.12059
H          0.42497       -2.44333        1.43412
H         -3.15832       -0.98897       -1.18114
H         -2.90160       -2.63516       -0.56645
H         -3.39383       -0.22049        1.25118
H         -3.48140       -1.92978        1.70492
H         -5.33615       -2.13499        0.22373
H         -5.26894        0.66668        0.08413
H         -6.45279       -0.30574       -0.47533
H         -1.76066        3.57318        0.11433
H         -0.84903        3.36016       -1.44377
H         -2.13052        1.37024       -1.93754
H         -3.05319        1.56765       -0.38675
