44
1085.log
C         -1.63553        3.36280        0.02962
N         -0.77266        2.21989       -0.20814
C          0.62996        2.58096       -0.15995
P          1.66076        1.09880       -0.54546
C          2.90463        1.77363       -1.71701
C          2.73187        0.98717        0.97613
O          2.46914        1.57523        1.99646
Rh         0.51800       -0.84479       -0.74177
Cl         1.92077       -1.33442        1.18218
C         -4.41856        0.74023       -1.35929
N         -3.02071        0.62915       -0.99366
C         -2.84405        0.22299        0.38627
P         -1.07499       -0.13415        0.77424
C         -0.71451        0.75929        2.33850
C         -1.37641       -1.72790        1.69101
O         -2.39898       -2.35969        1.67853
C          0.98090       -2.82140       -1.66729
C         -0.22472       -2.81821       -0.88483
H         -1.50773        3.71685        1.05388
H         -2.66795        3.06102       -0.12006
H         -1.41331        4.19865       -0.64686
H         -0.99896        1.83534       -1.12523
H          0.88845        2.90221        0.85893
H          0.88116        3.39232       -0.86513
H          2.42338        1.99814       -2.66793
H          3.35591        2.67653       -1.30354
H          3.67694        1.02188       -1.88115
H          3.71622        0.52252        0.79316
H          1.57833       -1.44885       -1.68658
H         -0.29165       -0.42571       -1.94817
H         -4.48950        1.01524       -2.41026
H         -4.87816        1.52913       -0.76126
H         -4.98850       -0.18609       -1.19581
H         -2.56901       -0.06234       -1.59016
H         -3.41363       -0.69315        0.63159
H         -3.18670        1.02985        1.04339
H         -1.37357        0.38321        3.12205
H         -0.86650        1.82450        2.20691
H          0.32241        0.57820        2.61944
H         -0.50648       -2.05944        2.29288
H          0.87959       -2.94685       -2.74212
H          1.83269       -3.35452       -1.25220
H         -0.19457       -3.36837        0.05154
H         -1.16760       -2.93412       -1.41260
