38
109.log
C         -1.33932        3.82178        1.81687
O         -1.25247        2.73453        0.92478
C         -2.31384        1.82790        1.04614
P         -1.77973        0.39782       -0.00447
C         -1.88995        1.14500       -1.66803
Br        -3.72627       -0.62603        0.02057
Rh         0.00572       -0.87901        0.61932
Cl        -0.18448       -1.80226       -1.58273
C          0.97692        0.72597       -3.83780
O          1.20233        1.13768       -2.50642
C          2.21749        0.41638       -1.85859
P          1.70518        0.48162       -0.08183
C          1.70261        2.29440        0.17012
Br         3.69139        0.08167        0.78393
C          0.12209       -2.98903        1.41573
C          1.38787       -2.39987        1.14624
H         -1.31384        3.47842        2.85704
H         -0.47917        4.45888        1.62078
H         -2.26158        4.39040        1.65217
H         -3.26468        2.26474        0.69600
H         -2.44656        1.49498        2.08797
H         -2.83538        1.67672       -1.78755
H         -1.81157        0.34529       -2.40559
H         -1.04912        1.82382       -1.80073
H         -0.99667       -1.91335        1.13812
H          0.07578       -0.27115        2.01437
H          1.88668        0.83301       -4.43820
H          0.64090       -0.31531       -3.86780
H          0.19958        1.37471       -4.23751
H          3.20730        0.87616       -2.01913
H          2.24983       -0.62994       -2.19138
H          0.83448        2.71716       -0.33003
H          1.62342        2.49777        1.23814
H          2.61724        2.73762       -0.22615
H         -0.15334       -3.16459        2.45110
H         -0.24656       -3.74211        0.72481
H          1.93260       -2.75849        0.27486
H          2.02610       -2.15272        1.99164
