46
1095.log
C         -1.15271       -1.92372       -2.86198
C         -1.21413       -1.79837       -1.36062
O         -2.27406       -1.83602       -0.76468
P          0.42234       -1.41680       -0.47321
C          1.42022       -2.66294       -1.38783
C         -0.13485       -2.30835        1.08105
C          0.60887       -2.04218        2.37008
F         -0.08468       -3.65806        0.77518
Rh         0.16219        0.89892       -0.69949
Cl        -1.43960        0.90151        1.18066
C          4.40342        0.08043        0.73826
C          2.90932       -0.04392        0.62332
O          2.40641       -1.18070        0.49508
P          1.85040        1.34730        0.82711
C          2.97027        2.77622        0.47658
C         -3.16751        0.50922        0.97188
C         -3.79639        0.17804        2.30423
F         -3.76389        1.60938        0.42124
C         -1.19970        2.25763       -1.83829
C         -0.24179        2.94262       -1.02375
H         -2.04969       -1.50700       -3.31741
H         -1.11571       -2.98269       -3.11535
H         -0.26224       -1.43265       -3.24929
H          2.14982       -3.08293       -0.70207
H          1.94668       -2.17280       -2.20404
H          0.77612       -3.45169       -1.76791
H         -1.20389       -2.07518        1.19778
H          1.61894       -2.43616        2.30655
H          0.09181       -2.51917        3.20145
H          0.66230       -0.96861        2.54222
H         -0.97187        0.68244       -1.73072
H          1.21095        0.90973       -1.77191
H          4.79256        0.63192       -0.11608
H          4.85290       -0.90994        0.76049
H          4.66713        0.62416        1.64305
H          3.41442        2.70174       -0.51512
H          2.37866        3.68834        0.53087
H          3.75377        2.83163        1.23083
H         -3.23920       -0.30442        0.24104
H         -4.85600       -0.01948        2.15661
H         -3.32469       -0.70534        2.72300
H         -3.68396        1.01144        2.99389
H         -1.07631        2.31871       -2.91473
H         -2.24023        2.28018       -1.52846
H         -0.60929        3.44947       -0.13405
H          0.54856        3.48758       -1.53186
