38
110.log
C         -1.33932        3.82178        1.81686
O         -1.25246        2.73453        0.92477
C         -2.31384        1.82791        1.04614
P         -1.77973        0.39782       -0.00447
C         -1.88995        1.14500       -1.66803
Br        -3.72627       -0.62603        0.02057
Rh         0.00572       -0.87901        0.61932
Cl        -0.18448       -1.80226       -1.58273
C          0.97692        0.72596       -3.83780
O          1.20234        1.13767       -2.50642
C          2.21749        0.41637       -1.85859
P          1.70518        0.48162       -0.08183
C          1.70262        2.29440        0.17011
Br         3.69139        0.08167        0.78394
C          0.12209       -2.98903        1.41574
C          1.38787       -2.39986        1.14624
H         -1.31384        3.47842        2.85704
H         -0.47917        4.45888        1.62078
H         -2.26158        4.39040        1.65216
H         -3.26467        2.26474        0.69599
H         -2.44656        1.49498        2.08796
H         -2.83537        1.67672       -1.78755
H         -1.81157        0.34528       -2.40559
H         -1.04911        1.82381       -1.80074
H         -0.99667       -1.91334        1.13813
H          0.07578       -0.27115        2.01437
H          1.88669        0.83299       -4.43820
H          0.64090       -0.31532       -3.86780
H          0.19959        1.37470       -4.23752
H          3.20730        0.87615       -2.01913
H          2.24983       -0.62995       -2.19138
H          0.83448        2.71716       -0.33003
H          1.62343        2.49777        1.23813
H          2.61723        2.73762       -0.22617
H         -0.15335       -3.16459        2.45110
H         -0.24656       -3.74211        0.72482
H          1.93260       -2.75849        0.27487
H          2.02610       -2.15272        1.99165
