34
1100.log
C          3.16188       -0.70939        1.24942
P          1.87631        0.36500        0.53237
N          1.73634        1.48214        1.78457
C          2.93295        1.39826       -0.58713
Cl         3.38009        0.35696       -1.94184
Rh         0.02325       -0.69034       -0.27361
Cl        -0.10004       -1.21426        2.07125
C         -2.16833        1.34204        1.63360
P         -1.35863        1.06092        0.02510
N         -0.60913        2.56911       -0.16657
C         -2.84597        1.23254       -1.09401
Cl        -4.09955        0.06652       -0.64162
C         -0.30549       -2.84659       -0.77371
C         -1.50520       -2.06505       -0.75597
H          3.90312       -0.08455        1.74724
H          3.62566       -1.30366        0.46328
H          2.68795       -1.37348        1.97117
H          1.38621        0.98548        2.60297
H          1.06405        2.20991        1.54808
H          2.39653        2.26030       -0.98379
H          3.83963        1.72470       -0.07598
H          0.88953       -1.93708       -0.51707
H          0.20187       -0.30659       -1.72948
H         -2.78705        2.23906        1.60047
H         -2.77719        0.47418        1.87871
H         -1.39832        1.44175        2.39651
H         -1.24831        3.35942       -0.17169
H         -0.01487        2.59308       -0.98752
H         -2.56290        1.03710       -2.13001
H         -3.28024        2.23288       -1.00715
H          0.03021       -3.23513       -1.73109
H         -0.14888       -3.53595        0.05220
H         -2.18544       -2.22657        0.07650
H         -2.01098       -1.90471       -1.70426
