46
1105.log
C          1.08341       -1.78955        2.68715
C          1.75922       -2.17209        1.42081
O          2.25516       -3.23946        1.18266
P          1.87278       -0.84601        0.08147
C          3.71104       -0.82767       -0.00035
C          1.58869       -1.93497       -1.37636
C          0.15051       -2.36422       -1.40459
O         -0.42305       -2.88100       -2.31969
O         -0.43072       -2.09219       -0.22735
Rh         0.99528        1.28905        0.14559
Cl         0.85522        1.12712       -2.22524
C         -1.86797        0.45960        2.97557
C         -1.94338       -0.16440        1.61716
O         -2.38056       -1.27109        1.41583
P         -1.26585        0.90357        0.24431
C         -2.36545        2.35017        0.54248
C         -2.13020        0.23523       -1.25886
C         -3.40082       -0.46662       -0.88099
O         -4.36835        0.06628       -0.40311
O         -3.34378       -1.77604       -1.13486
C          2.05708        3.24613       -0.15001
C          0.64919        3.38576       -0.01575
H          1.36837       -0.77396        2.95728
H          0.01183       -1.79499        2.49195
H          1.30997       -2.49194        3.48592
H          4.09321       -1.84876        0.00010
H          4.11369       -0.28417        0.85382
H          4.00872       -0.31921       -0.91797
H          2.22616       -2.82020       -1.28109
H          1.84060       -1.40551       -2.29873
H         -1.38151       -2.32424       -0.22059
H          2.45237        1.71359        0.02754
H          1.10852        1.39126        1.66047
H         -1.83241       -0.30536        3.74851
H         -0.99965        1.11279        3.03731
H         -2.76896        1.05274        3.12898
H         -2.09492        2.85291        1.46793
H         -3.40229        2.01519        0.57751
H         -2.24291        3.04957       -0.28338
H         -1.47446       -0.41670       -1.83423
H         -2.35529        1.11587       -1.86681
H         -4.16448       -2.21836       -0.86597
H          2.68953        3.61554        0.65158
H          2.48190        3.36589       -1.14200
H          0.09241        3.62630       -0.91634
H          0.27149        3.86366        0.88360
