50
1120.log
C          2.55352        3.01078       -0.31049
C          2.69919        1.59293       -0.76434
O          3.27321        1.25327       -1.76704
P          1.86459        0.23162        0.20687
C          1.74839        0.81209        1.93990
C          3.36252       -0.88670        0.24774
C          3.19261       -2.13802        1.10865
C          4.57571       -0.11991        0.66502
O          4.60427        1.06475        0.85729
Rh         0.00969       -0.70979       -0.75987
Cl        -0.20810       -1.93705        1.28838
C         -2.99672        1.34750       -2.47923
C         -3.12064        0.73095       -1.11860
O         -4.11524        0.20035       -0.69760
P         -1.58271        0.77082       -0.06926
C         -1.22718        2.57644       -0.15349
C         -2.37995        0.57967        1.60025
C         -3.07550        1.81857        2.14990
C         -3.32266       -0.60722        1.56755
O         -4.36687       -0.64908        2.15098
C         -0.22293       -2.64367       -1.87043
C         -1.45497       -1.94950       -1.68499
H          3.31627        3.19928        0.44296
H          2.71484        3.68949       -1.14500
H          1.57650        3.17304        0.13467
H          0.95530        1.55403        2.02559
H          2.69180        1.23174        2.28170
H          1.47256       -0.05196        2.54440
H          3.51734       -1.17980       -0.80205
H          3.94910       -2.88047        0.86327
H          3.27890       -1.89014        2.16462
H          2.20656       -2.57181        0.95100
H          5.47964       -0.74204        0.80355
H          0.95244       -1.78164       -1.31074
H          0.19531        0.08167       -2.04271
H         -1.98192        1.21948       -2.85261
H         -3.20666        2.41383       -2.40154
H         -3.71918        0.90721       -3.16319
H         -0.70709        2.77829       -1.08838
H         -2.14169        3.16387       -0.09976
H         -0.57746        2.84973        0.67640
H         -1.56285        0.26459        2.26777
H         -2.37416        2.61633        2.38106
H         -3.59787        1.53852        3.06265
H         -3.82209        2.17908        1.44484
H         -2.91744       -1.48253        1.03143
H          0.16797       -2.72309       -2.88071
H         -0.05268       -3.52749       -1.26157
H         -2.15807       -2.36437       -0.96879
H         -1.93355       -1.52902       -2.56514
