50
1128.log
C          4.06553       -0.85280       -1.98420
C          3.86834       -0.80409       -0.48664
O          4.56548       -0.16218        0.27214
N          2.84903       -1.59340       -0.05613
C          2.39362       -1.55659        1.30513
P          0.68519       -0.83123        1.44603
C         -0.29402       -2.32386        1.02295
C          0.52422       -0.80442        3.27096
Rh         0.41524        1.06840        0.19981
Cl         0.43021       -0.38861       -1.74698
C         -2.80938       -3.22458       -1.36403
C         -3.26800       -1.86570       -0.87760
O         -4.21345       -1.71388       -0.12515
N         -2.57424       -0.83285       -1.39740
C         -2.89268        0.53086       -1.08720
P         -1.86773        1.25859        0.28991
C         -2.55622        2.95883        0.24720
C         -2.74775        0.62248        1.76514
C          1.91019        2.35233       -0.84786
C          0.56028        2.75581       -1.07047
H          4.39248       -1.84843       -2.27647
H          4.82107       -0.12958       -2.27725
H          3.12694       -0.63788       -2.49142
H          2.19539       -1.93267       -0.75045
H          2.39451       -2.56544        1.74106
H          3.09342       -0.92099        1.86172
H         -0.01639       -3.14735        1.68067
H         -1.35798       -2.11905        1.12120
H         -0.09218       -2.59136       -0.01269
H         -0.51036       -0.60762        3.54338
H          0.83766       -1.75919        3.69124
H          1.14899       -0.00647        3.66700
H          1.94251        1.11603        0.13929
H          0.46270        1.94527        1.42746
H         -2.86893       -3.94452       -0.55193
H         -3.48888       -3.55100       -2.14932
H         -1.80099       -3.18939       -1.76441
H         -1.66758       -0.98070       -1.83786
H         -2.72831        1.14745       -1.97875
H         -3.94663        0.57809       -0.79070
H         -2.14343        3.52628        1.07924
H         -2.28278        3.45058       -0.68419
H         -3.64161        2.92205        0.33316
H         -2.32293        1.09065        2.65219
H         -3.80904        0.85501        1.69212
H         -2.63405       -0.45639        1.83882
H          2.54421        2.99163       -0.24198
H          2.44056        1.87424       -1.66649
H          0.14307        2.57479       -2.05892
H          0.24256        3.69638       -0.62919
