50
1139.log
C          3.04790       -0.08268       -2.95965
C          2.72155        0.93120       -1.87143
P          2.02272        0.08176       -0.38264
C          3.47755       -0.94302        0.07092
N          2.29276        1.28926        0.84804
C          2.88907        1.11042        2.14696
N          1.42008        2.25441        0.68121
O          0.76067        2.16430       -0.34862
O          1.30531        3.15080        1.48634
Rh         0.11048       -1.13483       -0.39803
Cl         0.71673       -1.63896        1.89940
C         -2.89834       -1.32410        2.42205
C         -3.11045       -0.59898        1.09601
P         -1.55682        0.21675        0.48174
C         -1.23168        1.19928        2.00206
N         -2.27387        1.50219       -0.45345
C         -2.20267        2.92971       -0.27812
N         -2.71950        1.02127       -1.60376
O         -3.11618        1.75952       -2.47031
O         -2.72183       -0.19685       -1.66216
C         -0.06858       -3.32656       -0.93446
C         -1.28797       -2.74660       -0.50366
H          2.19509       -0.74297       -3.11626
H          3.91745       -0.68380       -2.70530
H          3.25507        0.43122       -3.89566
H          3.61303        1.48936       -1.57072
H          1.97522        1.62898       -2.24943
H          3.29663       -1.42845        1.02736
H          4.38487       -0.34190        0.11453
H          3.59519       -1.72019       -0.68133
H          3.97377        1.06553        2.06954
H          2.60757        1.96403        2.76421
H          2.50678        0.19221        2.59904
H          1.04824       -2.21921       -0.92625
H         -0.18881       -0.73761       -1.81628
H         -2.90128       -0.63382        3.26159
H         -3.69300       -2.05028        2.58219
H         -1.94652       -1.85096        2.43114
H         -3.86797        0.18459        1.20395
H         -3.45608       -1.30042        0.33829
H         -2.17746        1.47065        2.46873
H         -0.66680        0.56600        2.68394
H         -0.66914        2.10663        1.81714
H         -1.17132        3.27619       -0.33490
H         -2.64141        3.21274        0.67683
H         -2.77218        3.38513       -1.08888
H          0.03679       -3.58445       -1.98361
H          0.43496       -4.01202       -0.25783
H         -1.65307       -3.03676        0.47587
H         -2.05864       -2.56221       -1.24340
