40
1143.log
C         -4.15501       -2.40662       -2.34570
C         -2.80993       -1.76313       -2.02970
C         -2.98376       -0.67797       -0.97370
P         -1.48252        0.26451       -0.44686
Br        -2.98140        1.55942        1.07388
C         -1.71805        1.93268       -1.19025
O         -0.89479        2.80950       -1.20296
Rh         0.01680       -0.50678        1.16451
Cl         0.40111       -2.34641       -0.54220
C          3.02466        4.02275       -0.69420
C          2.82386        2.62961       -0.11431
C          2.03722        1.74671       -1.08423
P          1.63111        0.15164       -0.28695
Br         3.56925       -0.86551       -0.37042
C          0.70323       -0.82470       -1.59442
O         -0.45647       -0.26819       -1.89489
C         -0.22698       -1.74051        2.99301
C          1.13821       -1.40480        2.68739
H         -4.58556       -2.85645       -1.45328
H         -4.03438       -3.18240       -3.09798
H         -4.85451       -1.66541       -2.72592
H         -2.38902       -1.33046       -2.93861
H         -2.12083       -2.53172       -1.67286
H         -3.40494       -1.11602       -0.06157
H         -3.70002        0.07203       -1.33319
H         -2.73171        2.07063       -1.61658
H         -1.13424       -1.10317        1.99944
H         -0.07018        0.75905        1.95033
H          3.58395        3.97296       -1.62619
H          2.06221        4.48847       -0.89112
H          3.57529        4.64693        0.00456
H          2.26734        2.70314        0.82584
H          3.79637        2.17613        0.10305
H          2.59585        1.56428       -2.01015
H          1.08446        2.23223       -1.32583
H          1.25667       -1.15928       -2.48033
H         -0.66235       -1.29209        3.88117
H         -0.53294       -2.77483        2.84796
H          1.78269       -2.20268        2.32058
H          1.64668       -0.72070        3.36094
