38
115.log
C          2.07648       -0.54038        2.12980
P          1.72337       -0.16532        0.37129
Br         3.56234       -1.00362       -0.51032
C          2.17022        1.62660        0.22189
C          3.43594        2.10264        0.94391
O          3.65491        3.47151        0.72790
Rh        -0.21144       -0.91472       -0.58278
Cl        -0.71802       -2.04472        1.46518
C         -1.40669        1.32567        1.90412
P         -1.68727        0.63834        0.22266
Br        -3.74916       -0.04591        0.55281
C         -2.14991        2.15347       -0.73963
C         -0.94919        3.02344       -1.09892
O         -1.26648        4.02026       -2.03208
C         -0.66960       -2.80537       -1.73953
C         -1.79327       -1.95824       -1.55578
H          1.39560        0.03166        2.75877
H          1.87468       -1.59959        2.29581
H          3.11166       -0.31555        2.38494
H          1.31631        2.20522        0.58492
H          2.26150        1.83042       -0.85235
H          4.30580        1.51215        0.62461
H          3.32053        2.00448        2.02618
H          3.87209        3.62130       -0.19942
H          0.61105       -2.09785       -1.09559
H          0.08748       -0.14582       -1.86376
H         -1.35540        0.48634        2.60008
H         -2.22664        1.98586        2.19073
H         -0.46509        1.87246        1.93984
H         -2.61962        1.81152       -1.66886
H         -2.89082        2.73019       -0.17354
H         -0.18364        2.40776       -1.58158
H         -0.52170        3.47319       -0.18872
H         -1.96054        4.58699       -1.67601
H         -0.24806       -2.90166       -2.73533
H         -0.61411       -3.71060       -1.14173
H         -2.54803       -2.28373       -0.84403
H         -2.19606       -1.44499       -2.42604
