50
1161.log
C          4.92127        1.13040       -1.41140
C          4.44114       -0.26836       -1.05376
N          3.23221       -0.19496       -0.25350
C          2.70894       -1.47784        0.14667
P          0.98307       -1.21535        0.75504
C          1.27709       -0.50506        2.42058
C          0.56329       -2.95546        1.25005
O          0.60314       -3.86062        0.45894
Rh        -0.69032       -0.64597       -0.67990
Cl        -1.79115       -1.90472        1.11162
C          2.36139        3.50856        0.77266
C          1.23238        2.94243       -0.07506
N         -0.03812        3.51629        0.33228
C         -1.16445        2.97195       -0.38921
P         -1.51449        1.26943        0.25441
C         -1.50161        1.57177        2.06188
C         -3.34690        1.24134        0.08101
O         -3.98434        1.99221       -0.60438
C         -1.56338       -1.93360       -2.27162
C         -2.33288       -0.75609       -2.02337
H          5.76021        1.07563       -2.09964
H          4.11313        1.68460       -1.88042
H          5.24230        1.66663       -0.52016
H          5.24840       -0.82015       -0.53886
H          4.19198       -0.81638       -1.96707
H          3.39952        0.38303        0.56507
H          3.31943       -2.00966        0.90277
H          2.62909       -2.12068       -0.73772
H          2.05539       -1.08264        2.92277
H          1.58008        0.53736        2.34343
H          0.35046       -0.57018        2.98911
H          0.36152       -3.11676        2.32497
H         -0.27216       -1.93864       -1.38538
H          0.13652        0.11943       -1.68097
H          3.30110        3.03315        0.50756
H          2.16166        3.34136        1.82837
H          2.46003        4.58036        0.61182
H          1.44343        3.12039       -1.14271
H          1.15999        1.85594        0.06330
H         -0.00615        4.52672        0.22490
H         -2.05494        3.57983       -0.19761
H         -1.00866        2.91096       -1.47957
H         -2.19042        2.38235        2.29866
H         -0.49657        1.85615        2.36202
H         -1.80640        0.65719        2.56838
H         -3.82792        0.44576        0.68621
H         -1.04345       -2.00842       -3.22229
H         -1.96554       -2.88023       -1.91980
H         -3.28577       -0.88878       -1.51741
H         -2.35753        0.01109       -2.79223
