46
1173.log
C         -1.54211        3.54793       -0.74929
C         -1.66084        2.05545       -1.01948
N         -2.09319        1.35878        0.16902
F         -3.48248        1.73663        0.39982
P         -2.02614       -0.35141        0.19690
C         -2.98749       -0.64073        1.72602
C         -3.22703       -0.86433       -1.09854
Rh         0.01670       -1.38003        0.07753
Cl         0.26108       -0.47485       -2.13165
C          4.09516        2.03822       -1.09855
C          3.03402        0.98816       -0.80056
N          2.23983        1.39715        0.33790
F          1.36656        2.44172       -0.08408
P          1.28598        0.20165        1.12323
C          2.64391       -0.42937        2.18521
C          0.46009        1.30463        2.32195
C          0.57102       -3.34890       -0.81156
C          1.68487       -2.62627       -0.27954
H         -2.50729        3.95858       -0.46097
H         -0.82756        3.73253        0.04720
H         -1.19952        4.05271       -1.64762
H         -0.68912        1.63022       -1.28214
H         -2.34467        1.87612       -1.85839
H         -2.99465       -1.71076        1.92315
H         -2.49600       -0.13117        2.55214
H         -4.00725       -0.27555        1.62393
H         -3.50135       -1.90539       -0.93600
H         -2.75198       -0.76865       -2.07511
H         -4.11690       -0.23593       -1.05106
H         -0.74443       -2.54841       -0.56139
H         -0.18284       -1.99980        1.44894
H          4.72313        2.20013       -0.22556
H          4.71650        1.71212       -1.92787
H          3.62298        2.97993       -1.36711
H          2.40421        0.81269       -1.67999
H          3.50016        0.04089       -0.51572
H          3.15493        0.41241        2.64923
H          2.20280       -1.06828        2.94714
H          3.35583       -1.01707        1.61071
H          0.09443        0.69015        3.14276
H         -0.38372        1.80218        1.84703
H          1.17402        2.04076        2.68901
H          0.26530       -4.25755       -0.30101
H          0.48634       -3.40729       -1.89309
H          2.38095       -2.20469       -1.00023
H          2.16530       -3.03628        0.60512
