46
1179.log
C         -1.80730        1.64573       -1.93445
P         -1.87518        1.13514       -0.17596
C         -2.14959        2.75393        0.64425
N         -3.49938        0.62241       -0.12465
C         -4.01884       -0.39950       -1.01831
C         -3.49975       -1.81069       -0.75660
F         -3.76283       -2.16884        0.55032
Rh        -0.21603       -0.17062        0.72086
Cl        -0.07560       -1.26456       -1.43487
C          2.14439        2.21577        1.67427
P          1.60213        1.14671        0.29168
C          1.55945        2.40097       -1.07264
N          3.05904        0.34108        0.04320
C          3.23512       -0.55411       -1.08969
C          4.32046       -1.57409       -0.78254
F          5.55449       -0.95720       -0.76145
C         -0.28721       -2.18135        1.70423
C          1.03047       -1.64314        1.59501
H         -2.78796        2.02028       -2.22515
H         -1.06498        2.42988       -2.05308
H         -1.51985        0.79643       -2.55153
H         -2.43687        2.58009        1.67897
H         -1.22616        3.32865        0.63561
H         -2.94014        3.29768        0.13139
H         -3.72746        0.37376        0.83718
H         -5.10970       -0.39186       -0.91274
H         -3.76434       -0.13704       -2.04572
H         -4.00592       -2.53966       -1.39545
H         -2.41678       -1.86813       -0.90168
H         -1.30547       -1.15382        1.15449
H         -0.37508        0.52210        2.05542
H          2.41712        1.58020        2.51351
H          1.31948        2.85688        1.97605
H          2.99681        2.82851        1.38350
H          2.54134        2.86726       -1.16380
H          1.31249        1.89402       -2.00447
H          0.81330        3.16461       -0.86792
H          3.87298        0.93812        0.16829
H          2.29264       -1.07483       -1.27344
H          3.51251       -0.01635       -2.00613
H          4.36900       -2.34801       -1.55348
H          4.18072       -2.02016        0.20616
H         -0.72789       -2.26364        2.69344
H         -0.54780       -3.00584        1.04595
H          1.69443       -2.10770        0.87309
H          1.52998       -1.33495        2.50908
