42
1182.log
C          1.60056        1.21282        1.54010
P          1.74213       -0.11751        0.29382
C          2.87856       -1.25433        1.18782
C          2.90144        0.76893       -0.95976
O          2.39030        2.05772       -1.13186
C          4.26298        0.79732       -0.37942
O          4.68671        1.76825        0.20241
Rh        -0.13845       -1.15731       -0.50061
Cl        -0.46744       -1.50210        1.87663
C         -3.08820        0.48942       -1.56190
P         -1.51824        0.66725       -0.63344
C         -0.85088        2.18981       -1.39105
C         -2.24555        1.19773        1.04827
O         -2.97327        0.10874        1.52250
C         -3.14099        2.36357        0.83780
O         -2.77322        3.48566        0.59761
C         -0.56495       -3.33358       -0.80065
C         -1.71065       -2.48909       -0.95245
H          0.97184        2.01967        1.16583
H          1.13844        0.77480        2.42443
H          2.58918        1.59674        1.79618
H          3.30901       -1.97968        0.49797
H          2.27857       -1.78741        1.92528
H          3.66764       -0.70593        1.70032
H          2.85381        0.21939       -1.90362
H          2.96565        2.64800       -0.61366
H          4.85020       -0.12940       -0.47872
H          0.68077       -2.46057       -0.53556
H          0.16628       -0.94367       -1.96653
H         -2.86999        0.05287       -2.53544
H         -3.76012       -0.16855       -1.01293
H         -3.55141        1.46632       -1.69601
H         -1.42145        3.06431       -1.08001
H          0.19899        2.31470       -1.13682
H         -0.92165        2.06898       -2.47119
H         -1.40539        1.47018        1.70296
H         -2.32457       -0.57447        1.80456
H         -4.21181        2.09932        0.89502
H         -0.18442       -3.83405       -1.68620
H         -0.50919       -3.94185        0.09809
H         -2.45767       -2.52157       -0.16348
H         -2.13245       -2.39791       -1.94918
