44
1188.log
C         -2.84029       -1.54158       -2.04883
C         -2.51285       -0.08288       -1.76336
P         -1.79169        0.11741       -0.09072
O         -3.15331       -0.30509        0.70092
C         -3.19897       -0.51941        2.09824
C         -2.03789        1.96617        0.12561
O         -2.52169        2.72605       -0.66288
O         -1.69997        2.29820        1.36790
Rh         0.10503       -1.01703        0.52358
Cl         0.66385       -1.28552       -1.81312
C          2.20643        1.67606        2.69448
C          1.75867        2.11256        1.30774
P          1.61426        0.64609        0.20215
O          3.18956        0.37612        0.09948
C          3.81731       -0.47098       -0.86413
C          1.29367        1.52816       -1.40648
O          2.14778        1.82935       -2.19145
O          0.00641        1.84978       -1.53601
C          0.38822       -3.19758        0.90873
C          1.58086       -2.41872        1.06504
H         -3.31201       -1.63619       -3.02453
H         -3.51687       -1.93704       -1.29431
H         -1.92757       -2.13481       -2.05305
H         -3.40807        0.54356       -1.79855
H         -1.78882        0.28751       -2.48854
H         -2.38080       -1.17064        2.42095
H         -4.15698       -0.99649        2.30610
H         -3.13299        0.42455        2.64384
H         -1.89577        3.23458        1.55812
H         -0.79768       -2.26541        0.57989
H         -0.12741       -0.71877        1.98842
H          2.26262        2.52937        3.36733
H          1.49933        0.95481        3.10079
H          3.18598        1.20785        2.64073
H          2.47816        2.80398        0.86141
H          0.77726        2.58657        1.35601
H          4.47145       -1.16181       -0.32974
H          3.09108       -1.02360       -1.46068
H          4.40882        0.15766       -1.53011
H         -0.16880        2.30390       -2.38085
H         -0.04488       -3.64651        1.79819
H          0.32388       -3.83254        0.02893
H          2.34588       -2.54362        0.30559
H          1.98244       -2.30521        2.06863
