48
1190.log
C          1.58343        2.54961       -1.29407
O          1.88737        2.00257       -0.02475
P          1.79444        0.39615        0.23100
C          2.32161        0.46426        1.97732
C          3.35750       -0.20474       -0.62418
C          4.62112        0.53926       -0.19331
N          3.40858       -1.64048       -0.43913
Rh        -0.01687       -0.84876       -0.37813
Cl        -0.47077       -1.20710        1.95808
C         -0.88552        2.30746        1.62290
O         -1.24964        2.22702        0.25184
P         -1.61744        0.81153       -0.46433
C         -2.01559        1.57181       -2.08287
C         -3.38604        0.56670        0.21457
C         -4.27469       -0.22439       -0.73760
N         -3.46144       -0.01694        1.52713
C         -0.18793       -3.03922       -0.70134
C         -1.42462       -2.36190       -0.87962
H          1.06141        1.82081       -1.91953
H          0.94562        3.42187       -1.14324
H          2.50681        2.85460       -1.79296
H          1.47653        0.74382        2.60029
H          3.12048        1.19377        2.08814
H          2.64633       -0.52837        2.28226
H          3.17616       -0.02437       -1.69311
H          5.44089        0.31866       -0.87701
H          4.92332        0.23660        0.80797
H          4.45044        1.61356       -0.19537
H          4.12370       -2.06194       -1.02207
H          3.61977       -1.86638        0.52747
H          1.01016       -1.96911       -0.32720
H          0.28726       -0.62849       -1.84767
H         -0.66608        1.32159        2.03868
H          0.00195        2.93784        1.69926
H         -1.70257        2.76471        2.18664
H         -2.27555        0.79021       -2.79119
H         -1.14364        2.10570       -2.44976
H         -2.84103        2.27137       -1.96855
H         -3.76658        1.59848        0.28664
H         -3.86187       -1.21028       -0.92629
H         -4.39916        0.29338       -1.68424
H         -5.25138       -0.34693       -0.27355
H         -2.96387        0.53779        2.21470
H         -3.03901       -0.94085        1.54170
H          0.31059       -3.44560       -1.57524
H         -0.06692       -3.64044        0.19467
H         -2.17615       -2.51152       -0.10959
H         -1.82795       -2.29870       -1.88704
