40
1191.log
C         -3.34374       -1.54700        1.59143
C         -1.97264       -2.00838        1.13507
O         -1.78898       -1.79612       -0.26210
P         -1.43036       -0.42046       -0.98853
C         -1.39478       -1.11588       -2.67732
C         -3.01914        0.40915       -1.09967
N         -4.00445        0.98566       -1.18764
Rh         0.17300        1.02938       -0.28554
Cl        -1.11532        1.13339        1.72846
C          3.38052       -1.38401       -1.82235
C          3.68267       -0.22464       -0.88975
O          3.14240       -0.42887        0.40863
P          1.56010       -0.45602        0.70426
C          1.71317       -0.52228        2.51998
C          1.18634       -2.19289        0.41935
N          0.94066       -3.29103        0.20422
C          0.24275        3.26606       -0.26365
C          1.35460        2.64522        0.39144
H         -4.11905       -1.98712        0.96879
H         -3.50301       -1.84054        2.62514
H         -3.40599       -0.46246        1.52352
H         -1.19487       -1.48506        1.70087
H         -1.84557       -3.08676        1.26721
H         -0.51758       -1.75396       -2.77015
H         -2.29309       -1.70724       -2.84676
H         -1.33157       -0.30478       -3.39940
H         -0.66428        2.18714       -0.86248
H          0.92027        0.95658       -1.60818
H          3.72481       -2.32045       -1.38999
H          2.30398       -1.44798       -1.98249
H          3.87170       -1.22928       -2.77902
H          4.75958       -0.11660       -0.73247
H          3.28321        0.70516       -1.31255
H          2.38658       -1.33276        2.79592
H          2.12046        0.42952        2.85861
H          0.73274       -0.66238        2.96905
H          0.43482        3.80413       -1.18761
H         -0.50500        3.73867        0.36727
H          1.37827        2.70439        1.47686
H          2.33397        2.75474       -0.06773
