50
1193.log
C          1.34013       -3.51585        1.17583
C          1.80718       -2.39029        0.30706
O          2.16942       -2.52151       -0.83666
P          1.72821       -0.68868        1.06593
C          2.39803       -1.05688        2.73907
C          3.26119        0.06120        0.35591
C          3.14898        0.47209       -1.09849
N          4.38103        1.12278       -1.56815
O          4.45460        1.34806       -2.75261
O          5.23161        1.39218       -0.75239
Rh        -0.27105        0.43804        1.11902
Cl         0.51743        2.23158       -0.26523
C         -1.93467       -2.94521       -0.36467
C         -2.19409       -1.79900       -1.27247
O         -2.91331       -1.81573       -2.23829
P         -1.24355       -0.22675       -0.88508
C         -0.03309       -0.45759       -2.25401
C         -2.31589        1.02457       -1.75951
C         -3.82002        0.84716       -1.60152
N         -4.18780        0.49767       -0.23175
O         -3.54567       -0.38615        0.30095
O         -5.10466        1.08359        0.28511
C         -0.93021        1.99915        2.60275
C         -1.94197        1.66341        1.67300
H          0.47745       -3.19560        1.75723
H          2.13946       -3.77962        1.86735
H          1.10274       -4.39339        0.57772
H          3.29097       -1.67782        2.67637
H          2.65679       -0.11070        3.21366
H          1.64010       -1.54848        3.34545
H          4.08318       -0.64947        0.49373
H          3.46780        0.94993        0.96326
H          2.33251        1.20311       -1.20929
H          2.95602       -0.37725       -1.75675
H          0.40033        1.05178        2.33851
H         -0.84374       -0.68801        1.95386
H         -2.57973       -3.78955       -0.59481
H         -2.08641       -2.60699        0.65865
H         -0.89002       -3.23058       -0.48020
H         -0.55975       -0.81071       -3.14127
H          0.44657        0.49612       -2.46410
H          0.72223       -1.18860       -1.97222
H         -1.99370        2.00605       -1.40059
H         -2.07591        0.96626       -2.82306
H         -4.14158        0.00558       -2.22693
H         -4.37289        1.74710       -1.87915
H         -1.05233        1.68627        3.63452
H         -0.41514        2.94776        2.48169
H         -2.18157        2.39946        0.91083
H         -2.79392        1.10699        2.04841
