46
1194.log
C          2.40080       -2.92480        1.69339
C          3.05300       -2.21825        0.56175
O          4.01959       -2.61010       -0.03499
P          2.24579       -0.61971       -0.04015
C          3.47737       -0.20846       -1.32786
C          2.81967        0.46324        1.37114
C          2.21141        1.84810        1.33004
Br         2.98295        2.95822       -0.06984
Rh         0.09831       -0.64724       -0.88862
Cl        -0.22004       -2.95349       -0.29646
C         -3.42376       -2.13686        0.49944
C         -2.94054       -1.00737        1.32489
O         -3.49042       -0.57408        2.30124
P         -1.24984       -0.20482        0.93925
C         -0.55296       -0.72106        2.55931
C         -1.72666        1.53295        1.39981
C         -2.22954        2.32134        0.21248
Br        -3.85283        1.51639       -0.49804
C         -0.51218       -1.13990       -3.00197
C         -1.60721       -0.74711       -2.20292
H          3.02894       -3.73321        2.05967
H          2.14136       -2.24216        2.49918
H          1.46745       -3.34034        1.29488
H          3.54310       -1.06598       -1.99935
H          4.45929       -0.03152       -0.88959
H          3.15301        0.66291       -1.89346
H          2.52886       -0.01005        2.31406
H          3.91250        0.51208        1.34392
H          1.14548        1.78840        1.10322
H          2.37148        2.39023        2.26299
H          0.90989       -1.06773       -2.10197
H          0.27472        0.81595       -1.24537
H         -2.58160       -2.76580        0.20733
H         -4.16814       -2.71019        1.04843
H         -3.89013       -1.73369       -0.39957
H          0.36889       -0.17669        2.75751
H         -0.34265       -1.78896        2.51107
H         -1.27681       -0.52468        3.35049
H         -2.49348        1.47012        2.17928
H         -0.85396        2.04233        1.82030
H         -1.50573        2.31771       -0.60496
H         -2.48641        3.34648        0.47925
H         -0.15554       -0.46259       -3.77149
H         -0.40607       -2.19254       -3.24635
H         -2.30400       -1.52008       -1.90318
H         -2.06673        0.21447       -2.40634
