44
1205.log
C          2.41480        4.13612       -1.12789
O          3.51233        3.27285       -0.95455
C          3.17580        1.91426       -0.82030
C          2.60678        1.55718        0.55327
P          1.95549       -0.17154        0.58442
C          3.50569       -1.14900        0.55649
Cl         1.50604       -0.30627        2.49871
Rh         0.32228       -0.83410       -0.86371
Cl         0.55906       -2.87768        0.34642
C         -5.25823        2.22525       -0.77837
O         -5.30627        0.96607       -0.15302
C         -4.14636        0.61392        0.56180
C         -3.00960        0.14475       -0.35267
P         -1.39233       -0.20245        0.47267
C         -1.89635       -1.28412        1.86121
Cl        -1.09060        1.51817        1.41119
C          0.41012       -2.01923       -2.75940
C         -0.91876       -1.77624       -2.28651
H          2.83166        5.11354       -1.36246
H          1.77816        3.80086       -1.95521
H          1.80304        4.21671       -0.22274
H          2.45081        1.62045       -1.59681
H          4.11090        1.37395       -0.99052
H          3.36630        1.67808        1.33062
H          1.76455        2.21413        0.78743
H          3.24554       -2.19182        0.73800
H          3.97137       -1.06357       -0.42351
H          4.18612       -0.79418        1.33055
H          1.41263       -1.30947       -1.83913
H          0.22486        0.48876       -1.60818
H         -4.99472        3.01184       -0.06119
H         -4.54381        2.25017       -1.60848
H         -6.25800        2.40869       -1.16666
H         -3.81129        1.46088        1.17857
H         -4.46198       -0.20146        1.21717
H         -2.79858        0.90489       -1.11080
H         -3.31058       -0.76812       -0.87237
H         -2.57678       -0.76329        2.53264
H         -1.00775       -1.60280        2.40396
H         -2.37027       -2.16893        1.43921
H          0.71546       -1.53492       -3.68226
H          0.80126       -3.02607       -2.64457
H         -1.44961       -2.62534       -1.86287
H         -1.54748       -1.11948       -2.88212
