40
1211.log
C          1.32352       -2.06702        2.64934
C          2.39790       -1.82844        1.59888
P          1.78239       -0.79800        0.19025
C          3.25320       -0.91677       -0.90992
Br         4.60948        0.18093       -0.07695
N          0.77784       -2.07217       -0.58363
O          1.33730       -2.91126       -1.24629
O         -0.41169       -2.06674       -0.31077
Rh         0.54632        1.07939        0.20664
Cl         0.59428        0.35248       -2.12618
C         -3.39466       -0.73858        2.43737
C         -2.18095       -1.11841        1.59710
P         -1.54534        0.11268        0.36308
C         -2.39428       -0.26571       -1.23064
Br        -4.20662       -0.89781       -0.99386
N         -2.60493        1.49723        0.84316
O         -2.40974        1.89432        1.97027
O         -3.37242        1.97941        0.04405
C          1.09070        3.19507       -0.34893
C         -0.30608        2.99077       -0.21142
H          0.89607       -1.11545        2.96581
H          0.53014       -2.70348        2.26035
H          1.75361       -2.55645        3.52009
H          2.78636       -2.77511        1.20479
H          3.22586       -1.26659        2.04323
H          3.63514       -1.93628       -0.98784
H          3.04554       -0.50240       -1.89742
H          1.85700        1.85176        0.07337
H          0.56640        1.37573        1.68569
H         -4.25530       -0.47894        1.82516
H         -3.66741       -1.59731        3.04726
H         -3.17237        0.09229        3.10299
H         -2.39075       -2.01803        1.01127
H         -1.34136       -1.33833        2.25830
H         -1.85349       -1.03716       -1.77443
H         -2.44529        0.64659       -1.82976
H          1.59430        3.80983        0.38959
H          1.50095        3.27663       -1.35191
H         -0.90423        2.96735       -1.12050
H         -0.79842        3.46456        0.63311
