38
1213.log
C          1.35396        2.32506       -1.30913
P          1.66373        0.78712       -0.36104
C          3.37879        0.45627       -0.98761
Cl         4.14328       -0.75780        0.05635
C          2.10533        1.47985        1.29657
C          0.98869        2.22551        1.80185
N          0.11236        2.85534        2.17862
Rh         0.27019       -1.00187       -0.39679
Cl        -0.14434       -0.70554        1.93426
C         -2.09078        0.79295       -2.38020
P         -1.73024        0.04323       -0.74885
C         -2.25894        1.37949        0.43297
Cl        -1.98240        2.99119       -0.23936
C         -3.27153       -0.99661       -0.62975
C         -3.49900       -1.47068        0.70725
N         -3.72191       -1.84681        1.76294
C          0.68116       -3.16905        0.03922
C         -0.67361       -2.91116       -0.29179
H          1.26695        2.07227       -2.36547
H          0.42107        2.77663       -0.97355
H          2.17009        3.03432       -1.16790
H          4.00145        1.35361       -0.97035
H          3.33247        0.04865       -1.99864
H          2.98168        2.13183        1.21319
H          2.30599        0.64273        1.97304
H          1.52983       -1.79312       -0.07851
H          0.50739       -1.18396       -1.89278
H         -2.08768       -0.00412       -3.12299
H         -3.05347        1.30247       -2.37832
H         -1.30762        1.50428       -2.63113
H         -3.32534        1.30125        0.65760
H         -1.68268        1.30606        1.35927
H         -3.16585       -1.85053       -1.30571
H         -4.12826       -0.38809       -0.94193
H          1.29187       -3.72281       -0.66744
H          0.91919       -3.35799        1.08140
H         -1.39673       -2.95402        0.51777
H         -1.04000       -3.29336       -1.24201
