46
1215.log
C         -1.86724       -1.31086        3.02032
C         -2.30459       -0.20543        2.07134
P         -1.76328       -0.53985        0.33943
C         -2.94251       -1.84821       -0.15737
C         -2.56450        0.87163       -0.57403
N         -3.91565        1.08573       -0.11550
F         -3.90451        2.06530        0.91351
Rh         0.41891       -0.93988       -0.22301
Cl        -0.36521       -0.54077       -2.46282
C          0.27742        2.83673       -1.99824
C          1.56543        2.27385       -1.41614
P          1.32102        1.13242        0.01744
C          0.61877        2.27128        1.28200
C          3.09383        1.15502        0.57829
N          3.26441        0.12265        1.55815
F          4.59438        0.18690        2.06995
C          1.37468       -2.81720       -0.99414
C          2.24510       -1.68349       -0.99570
H         -2.37257       -2.24511        2.78701
H         -0.79352       -1.47451        2.93882
H         -2.10210       -1.04433        4.04886
H         -3.39178       -0.10325        2.07515
H         -1.86726        0.74700        2.38095
H         -2.74560       -2.75640        0.41007
H         -2.79323       -2.05466       -1.21700
H         -3.96256       -1.50679        0.01655
H         -2.58912        0.56669       -1.62360
H         -1.94955        1.77620       -0.50575
H         -4.47941        1.53479       -0.84009
H          0.02604       -2.41364       -0.40580
H          0.84168       -1.24392        1.19630
H         -0.27033        3.41857       -1.25896
H         -0.34754        2.02237       -2.35695
H          0.50540        3.48722       -2.84054
H          2.07985        1.69058       -2.18531
H          2.22886        3.08248       -1.08950
H          0.69136        1.79907        2.26109
H          1.15380        3.22105        1.28663
H         -0.43488        2.44994        1.07720
H          3.73008        0.91284       -0.28016
H          3.35423        2.16110        0.94611
H          2.69561        0.30263        2.38785
H          1.59357       -3.62007       -0.29604
H          1.00697       -3.16480       -1.95615
H          2.48475       -1.24975       -1.96332
H          3.07007       -1.68472       -0.29100
