44
1216.log
C         -4.53918       -1.07000       -1.20208
C         -3.08730       -1.06754       -0.76325
F         -2.66655       -2.37717       -0.59291
O         -2.95766       -0.40799        0.43497
P         -1.49429        0.09514        1.00830
C         -2.21391        1.11130        2.34443
C         -0.96309       -1.36424        1.98704
Rh        -0.03374        1.20109       -0.36267
Cl         1.13239        1.37237        1.72446
C          3.95977       -1.69961        1.40874
C          2.53363       -1.51888        0.92891
F          1.88268       -2.74385        0.95865
O          2.54435       -1.07281       -0.38111
P          1.22847       -0.52797       -1.18144
C          0.40058       -2.09074       -1.68620
C          2.16308       -0.19201       -2.71788
C          0.26598        3.40942       -0.58953
C          1.26677        2.62148       -1.23847
H         -5.15176       -1.49267       -0.41007
H         -4.64735       -1.66753       -2.10246
H         -4.85406       -0.04993       -1.39652
H         -2.41581       -0.64625       -1.53199
H         -2.87339        0.49385        2.95152
H         -1.40410        1.50844        2.95118
H         -2.78119        1.93258        1.91044
H         -0.50299       -2.12398        1.35969
H         -0.24323       -1.03079        2.73026
H         -1.84268       -1.78135        2.47572
H         -0.80117        2.47545        0.01883
H         -0.86390        1.10747       -1.63140
H          4.43813       -0.72705        1.46147
H          4.50049       -2.33581        0.71257
H          3.95418       -2.15748        2.39346
H          1.95700       -0.85693        1.58796
H         -0.23239       -1.88268       -2.54528
H         -0.21914       -2.49097       -0.88820
H          1.16095       -2.82355       -1.95122
H          1.47269        0.14419       -3.48691
H          2.66528       -1.10308       -3.03702
H          2.90434        0.58104       -2.53312
H         -0.41111        3.98372       -1.21540
H          0.54826        3.91830        0.32817
H          2.25145        2.59684       -0.77880
H          1.28968        2.64187       -2.32437
