30
1217.log
C         -2.64018       -0.49795       -2.86615
C         -2.15160       -1.46436       -1.79943
P         -1.68209       -0.56820       -0.24812
Cl        -1.36030       -2.10416        0.96073
Br        -3.70257        0.05290        0.37540
Rh        -0.07961        1.05485       -0.23052
Cl        -0.43321        1.00985        2.13190
C          3.24911       -1.97017        1.81696
C          2.14492       -0.92761        1.75262
P          1.64211       -0.39228        0.05871
Cl         1.45462       -2.13731       -0.88288
Br         3.61429        0.26804       -0.68975
C         -0.14116        3.30611       -0.16688
C          1.16626        2.75194       -0.04877
H         -2.81792       -1.02806       -3.79896
H         -3.56979       -0.01913       -2.56221
H         -1.89349        0.27547       -3.04647
H         -2.91488       -2.21122       -1.55944
H         -1.25184       -1.98399       -2.14018
H         -1.15382        2.13957       -0.38270
H          0.11539        1.04142       -1.74199
H          3.46122       -2.20115        2.85882
H          4.16781       -1.60723        1.35841
H          2.95243       -2.89201        1.31986
H          2.43431       -0.01094        2.27675
H          1.23168       -1.29139        2.23188
H         -0.38879        3.84360       -1.07699
H         -0.59897        3.71564        0.72901
H          1.63758        2.79262        0.93132
H          1.85817        2.89307       -0.87612
