48
1224.log
C         -3.67695       -1.73364        0.55558
C         -2.43371       -2.18014       -0.20156
C         -2.71305       -2.34124       -1.68967
O         -1.41847       -1.16857       -0.03224
P         -0.03171       -1.40211        0.74979
C         -0.49119       -2.08476        2.40234
C          0.66116       -2.94686       -0.02325
O          1.54025       -3.58164        0.49727
Rh         1.46351        0.26150        0.41144
Cl         1.68897       -1.14256       -1.55275
C         -1.33199        3.14300        2.25833
C         -1.72682        2.19187        1.13743
C         -3.21311        2.25870        0.81761
O         -0.99891        2.56803       -0.04201
P          0.03177        1.58445       -0.76159
C          0.69562        2.79351       -1.96650
C         -1.04762        0.69380       -1.99120
O         -2.22962        0.88351       -2.06148
C          3.67479        0.27915        0.69057
C          3.16955        1.41153       -0.03260
H         -4.02948       -0.79053        0.14699
H         -4.46040       -2.48013        0.45660
H         -3.45144       -1.59216        1.60985
H         -2.06857       -3.13288        0.20631
H         -3.46137       -3.11450       -1.84253
H         -1.80461       -2.61885       -2.21895
H         -3.07848       -1.40362       -2.09952
H          0.42499       -2.45286        2.85967
H         -0.90909       -1.29343        3.02194
H         -1.20310       -2.90526        2.31346
H          0.15830       -3.28289       -0.95063
H          2.51865       -0.59360        1.14277
H          1.23242        1.03382        1.68938
H         -1.54633        4.16779        1.96603
H         -1.88560        2.90595        3.16243
H         -0.26713        3.05119        2.45820
H         -1.45100        1.16334        1.41384
H         -3.49916        3.28478        0.59998
H         -3.79553        1.89638        1.66027
H         -3.42218        1.64979       -0.05764
H         -0.13734        3.30684       -2.44448
H          1.29499        2.26890       -2.70725
H          1.31485        3.51331       -1.43590
H         -0.51979        0.00943       -2.67637
H          4.09554        0.45764        1.67592
H          4.21508       -0.47351        0.12229
H          3.38093        1.44338       -1.09893
H          3.23753        2.38257        0.45071
