44
1236.log
C         -2.80997       -3.23074       -0.56532
C         -1.87303       -2.07579       -0.89768
P         -1.28664       -1.05155        0.53159
C         -2.20038       -1.70652        1.99289
C         -2.31261        0.45431        0.28724
O         -2.90281        0.83140       -0.67483
O         -2.21318        1.18047        1.46141
C         -2.66150        2.37674        1.56599
N         -3.02527        3.45053        1.70393
Rh         0.95754       -0.62108        0.96281
Cl         1.65219       -1.56580       -1.14797
C          0.68253        3.43150        1.17515
C          0.47109        2.79606       -0.19206
P          1.35578        1.17650       -0.31715
C          3.08759        1.68229       -0.56945
C          0.93976        0.75033       -2.06164
O          1.58951        0.93635       -3.04124
O         -0.40504        0.38788       -2.07382
C         -0.99400        0.08215       -3.17073
N         -1.56578       -0.20592       -4.11644
C          2.26542       -2.13091        2.14109
C          2.87326       -0.85026        1.70553
H         -3.02885       -3.77302       -1.48262
H         -2.35583       -3.92792        0.13559
H         -3.75300       -2.87769       -0.15552
H         -2.36315       -1.39003       -1.59596
H         -0.97594       -2.46545       -1.38787
H         -1.98192       -1.06775        2.84767
H         -1.83790       -2.71083        2.20850
H         -3.27440       -1.73722        1.81797
H          1.11408       -2.09221        1.78329
H          0.58309        0.13062        2.22237
H          1.71625        3.74560        1.29811
H          0.03751        4.29886        1.29459
H          0.44741        2.71535        1.96166
H         -0.59426        2.62249       -0.37081
H          0.84166        3.44678       -0.99117
H          3.12761        2.46812       -1.32429
H          3.64543        0.81629       -0.92451
H          3.51313        2.02890        0.37034
H          2.21068       -2.27214        3.21919
H          2.66789       -3.01295        1.64513
H          3.64320       -0.94603        0.94254
H          3.18464       -0.18297        2.50740
