40
1256.log
C          3.62685       -0.11899       -1.18489
C          2.28754       -0.40876       -0.53879
Br         2.50980       -1.80123        0.81204
P          1.52199        1.06432        0.31688
C          2.47487        1.23916        1.86098
C          2.31182        2.41717       -0.66811
O          3.06254        3.21452       -0.17904
Rh        -0.71199        1.53069        0.19241
Cl        -0.24368        1.01419       -2.10382
C         -2.89454       -1.18632       -1.74566
C         -2.20341       -1.74502       -0.52208
Br        -0.56656       -2.66585       -1.04701
P         -1.68953       -0.46092        0.73162
C         -1.03093       -1.48963        2.08409
C         -3.38629       -0.20228        1.42211
O         -3.64963       -0.34003        2.58193
C         -1.67379        3.44725       -0.48161
C         -2.61065        2.39465       -0.28672
H          4.31860        0.35492       -0.48798
H          4.07757       -1.04630       -1.53812
H          3.48736        0.53868       -2.04215
H          1.57895       -0.81692       -1.26272
H          2.07710        0.57424        2.62634
H          2.35824        2.27326        2.18674
H          3.53270        1.03042        1.69922
H          1.98930        2.48063       -1.72500
H         -0.23216        2.96321       -0.06721
H         -0.85486        1.89166        1.66146
H         -2.25187       -0.45877       -2.24311
H         -3.82932       -0.70131       -1.46346
H         -3.12047       -1.98393       -2.45302
H         -2.80899       -2.50802       -0.01924
H         -1.71179       -2.31542        2.29649
H         -0.03988       -1.87389        1.84881
H         -0.96620       -0.84622        2.96243
H         -4.16261        0.09919        0.68865
H         -1.69924        4.28655        0.20627
H         -1.43167        3.72224       -1.50461
H         -3.04386        1.94395       -1.17578
H         -3.29758        2.48670        0.54958
