46
1260.log
C         -1.87874        2.93907        0.02122
P         -1.53996        1.15784       -0.26192
C         -1.54476        1.10303       -2.09738
C         -3.22575        0.50057        0.09345
C         -3.38022       -0.98098       -0.24062
O         -4.65822       -1.46673        0.07928
O         -5.63113       -0.87706       -0.78540
Rh         0.15454        0.16048        0.91171
Cl        -0.06475       -1.66013       -0.67405
C          2.88469        2.30004        1.02213
P          2.00207        1.11636       -0.06530
C          1.85746        2.14711       -1.58123
C          3.43009        0.05827       -0.56471
C          3.09530       -0.88600       -1.72893
O          3.47395       -2.21713       -1.49022
O          2.79281       -2.73220       -0.36557
C          0.09369       -1.36922        2.55080
C          1.41743       -0.99889        2.15768
H         -2.70267        3.27640       -0.60586
H         -0.98578        3.51952       -0.20293
H         -2.13017        3.08689        1.06935
H         -0.85940        1.85278       -2.48690
H         -1.21881        0.11923       -2.42989
H         -2.55052        1.30251       -2.46639
H         -3.43266        0.65503        1.15744
H         -3.95804        1.06980       -0.48850
H         -2.72212       -1.60374        0.37102
H         -3.15639       -1.16439       -1.29840
H         -6.24910       -1.60487       -0.93137
H         -0.92133       -0.53901        1.75501
H          0.16273        1.29084        1.91245
H          3.75323        2.71665        0.51425
H          2.20340        3.10118        1.30114
H          3.20231        1.78612        1.92681
H          1.49563        1.53664       -2.40603
H          2.83202        2.56059       -1.83924
H          1.15489        2.95894       -1.40004
H          3.70964       -0.55339        0.29789
H          4.27588        0.70667       -0.80751
H          3.65181       -0.62843       -2.63261
H          2.01845       -0.84734       -1.95176
H          1.83206       -2.65159       -0.58813
H         -0.24679       -1.07114        3.53857
H         -0.25443       -2.35448        2.25228
H          1.99204       -1.73843        1.60700
H          2.00473       -0.42843        2.87318
