50
1265.log
C         -3.96992        2.12688       -0.75949
C         -3.30119        1.37782        0.35702
O         -2.77098        1.92432        1.29319
C         -3.40767       -0.13764        0.24710
C         -2.50474       -0.84781        1.24985
P         -1.08484       -1.75470        0.50583
C         -1.82507       -3.40117        0.17136
C         -0.27436       -1.48710        2.97747
O         -0.29516       -2.22943        1.90152
Rh         0.38352       -0.95522       -1.04836
Cl        -0.86070        1.09205       -1.19004
C          0.01258        3.86281        0.07332
C          0.81494        2.62929        0.36463
O          1.75752        2.29075       -0.32599
C          0.44054        1.92327        1.64296
C          1.34429        0.74191        1.96369
P          1.91398       -0.19829        0.48244
C          2.87490       -1.51167        1.34368
C          3.40164        0.82715        0.02775
O          4.12062        1.26048        0.88500
C          0.36635       -0.94154       -3.28539
C          1.52476       -0.32926       -2.69613
H         -4.87530        1.62386       -1.08706
H         -3.26950        2.16047       -1.59221
H         -4.19048        3.14549       -0.45190
H         -3.17298       -0.41973       -0.78072
H         -4.45549       -0.39171        0.42781
H         -3.05298       -1.57572        1.85540
H         -2.07581       -0.10790        1.93769
H         -2.34635       -3.77653        1.05101
H         -2.51975       -3.31400       -0.66166
H         -1.02894       -4.08997       -0.10480
H          0.37986       -2.03805        3.69721
H         -0.52085       -1.46412       -2.19916
H          1.11347       -2.28219       -1.02611
H          0.07562        4.11287       -0.98188
H          0.43141        4.68422        0.65462
H         -1.02293        3.71652        0.36540
H         -0.60195        1.61151        1.54378
H          0.46452        2.65734        2.45235
H          0.79496        0.02648        2.61239
H          2.25525        1.06796        2.47840
H          3.54346       -1.04639        2.06806
H          3.46516       -2.04491        0.59885
H          2.22286       -2.22510        1.83848
H          3.61413        0.94933       -1.04476
H          0.51304       -1.87144       -3.82843
H         -0.35380       -0.27758       -3.75640
H          1.59403        0.75343       -2.75281
H          2.47763       -0.83553       -2.82766
