40
127.log
C         -2.83304        1.18371        1.52832
P         -1.80101        0.81752        0.05652
C         -2.95760        1.27040       -1.29228
C         -1.83048       -1.06529        0.05858
N         -2.88469       -1.79107        0.69897
Br        -4.58613       -1.70443       -0.11845
Rh         0.29583        1.73283        0.12026
Cl         0.68102        0.13114        1.88843
C          2.81930        1.13674       -2.24989
P          1.30851        0.45700       -1.47616
C          0.35861       -0.00439       -2.97837
C          1.95867       -1.20878       -0.98584
N          2.94775       -0.93564        0.02478
Br         3.97605       -2.45312        0.50347
C          1.14894        3.29765        1.48091
C          2.10726        2.71510        0.59178
H         -3.81526        0.71490        1.45657
H         -2.31098        0.84383        2.42385
H         -2.96450        2.26420        1.58940
H         -3.94678        0.84469       -1.14064
H         -3.02931        2.35701       -1.31135
H         -2.55402        0.93650       -2.24598
H         -1.74859       -1.40799       -0.97854
H         -0.91808       -1.35521        0.59713
H         -3.00592       -1.48506        1.66158
H         -0.22984        2.70718        1.18932
H         -0.02679        2.75002       -0.95446
H          3.59813        1.21016       -1.49344
H          2.60181        2.12776       -2.64404
H          3.15404        0.48349       -3.05503
H         -0.51361       -0.59589       -2.70797
H          0.02565        0.91128       -3.46428
H          0.98603       -0.57403       -3.66278
H          1.13346       -1.85880       -0.65610
H          2.44256       -1.66375       -1.85833
H          2.45908       -0.63840        0.88124
H          0.88233        4.33925        1.32554
H          1.20835        3.01931        2.52993
H          2.84213        2.04298        1.02715
H          2.50948        3.35225       -0.19075
