48
1281.log
C         -1.07586        4.07337        0.31747
C         -0.80463        2.82291       -0.50378
P         -0.95099        1.21911        0.42274
C         -0.91982        1.58339        2.21726
C         -2.87589        1.21280        0.34852
C         -3.35563       -0.05144        0.95468
O         -3.43137       -0.28105        2.14000
C         -3.76228       -1.02755       -0.04947
N         -4.16446       -1.73169       -0.85979
Rh        -0.32164       -0.72810       -0.69625
Cl         1.30398        0.55827       -1.91437
C          2.37563       -1.86684        3.29083
C          1.25691       -1.24333        2.46560
P          1.43439       -1.33176        0.63252
C          2.23572       -2.96115        0.38408
C          2.86745       -0.21221        0.27588
C          2.22675        1.12916       -0.05221
O          1.30348        1.51566        0.70637
C          3.10210        2.08821       -0.68829
N          3.79995        2.86074       -1.16514
C         -1.15705       -1.62421       -2.56663
C         -0.07239       -2.36931       -2.00443
H         -0.35635        4.15549        1.12767
H         -0.97069        4.95000       -0.31951
H         -2.08244        4.08013        0.73116
H          0.20334        2.88259       -0.91315
H         -1.49941        2.75670       -1.34776
H         -1.30177        0.70674        2.73938
H         -1.57208        2.42850        2.42679
H          0.08826        1.80656        2.54577
H         -3.24009        2.06334        0.92578
H         -3.19098        1.29334       -0.69268
H         -1.42825       -0.36623       -1.70226
H         -1.25020       -1.54198        0.15856
H          2.38743       -2.94898        3.18903
H          2.21974       -1.63223        4.34210
H          3.35155       -1.47877        3.00463
H          1.15994       -0.18150        2.69962
H          0.30146       -1.72098        2.70154
H          3.17074       -3.01448        0.93909
H          2.43757       -3.10497       -0.67564
H          1.55798       -3.74336        0.72079
H          3.47931       -0.59817       -0.54182
H          3.48649       -0.08996        1.16966
H         -2.15296       -2.05109       -2.49733
H         -0.97540       -1.09783       -3.50022
H          0.86792       -2.35763       -2.55145
H         -0.30729       -3.33474       -1.56665
