44
1283.log
C         -2.34562        3.39759       -0.26850
C         -1.50727        2.33592        0.42789
P         -0.97263        0.92655       -0.64381
C         -0.27707        1.79097       -2.09530
O         -2.36702        0.56151       -1.44023
C         -3.19401       -0.48668       -1.15452
Br        -4.25766       -0.16954        0.47054
Rh        -0.03154       -0.81410        0.52451
Cl        -0.34008       -2.16143       -1.44385
C          4.34873       -2.49835       -0.88403
C          2.93670       -2.47501       -0.31246
P          2.11804       -0.82362       -0.25104
C          2.53682       -0.16319       -1.91017
O          3.31848       -0.09029        0.64037
C          3.06313        0.96414        1.45993
Br         2.54277        2.56854        0.45867
C         -1.05067       -2.33242        1.83430
C          0.34798       -2.55138        1.70406
H         -1.74690        3.97785       -0.96519
H         -2.75879        4.07965        0.47139
H         -3.17430        2.94450       -0.80863
H         -0.59160        2.77203        0.83196
H         -2.06278        1.90535        1.26614
H         -1.07800        2.37720       -2.54163
H          0.53980        2.43927       -1.79004
H          0.06421        1.05427       -2.81882
H         -2.65980       -1.42855       -0.99076
H         -3.91844       -0.58669       -1.96561
H         -1.44744       -0.99355        1.06188
H          0.23494        0.07631        1.72050
H          4.34631       -2.36011       -1.96179
H          4.96333       -1.72662       -0.42612
H          4.80436       -3.46456       -0.67463
H          2.27728       -3.12473       -0.89145
H          2.95709       -2.84046        0.71798
H          2.00181       -0.75408       -2.65000
H          3.61100       -0.24690       -2.06180
H          2.24522        0.87968       -1.99746
H          3.97512        1.22995        1.99861
H          2.22471        0.78921        2.14452
H         -1.43903       -2.00248        2.79289
H         -1.71705       -3.00325        1.29963
H          0.65350       -3.39625        1.09472
H          0.97210       -2.38658        2.57845
