44
1285.log
C         -1.80470        1.90406       -2.11508
C         -1.81931        1.95446       -0.59188
P         -1.75965        0.26320        0.14997
C         -2.36956        0.70693        1.82345
O         -3.32577        0.20722        2.35153
C         -3.26665       -0.54010       -0.55680
N         -4.36181        0.40566       -0.56029
Rh         0.08972       -1.10390        0.26962
Cl         0.09921       -1.05746       -2.11510
C          2.95985        2.70941       -0.99349
C          1.97019        1.56316       -1.16304
P          1.66559        0.54422        0.33922
C          1.17370        1.77477        1.59727
O          0.67474        2.84630        1.36783
C          3.39906        0.19964        1.00675
N          4.26686       -0.52797        0.12601
C          0.23511       -3.32906        0.16084
C          1.50744       -2.68195        0.21112
H         -1.61953        2.89667       -2.52107
H         -1.03576        1.22541       -2.47962
H         -2.76640        1.55628       -2.48264
H         -2.74183        2.42428       -0.23880
H         -0.96763        2.51706       -0.19884
H         -1.75268        1.46908        2.34261
H         -3.44880       -1.46031        0.02681
H         -3.01710       -0.82842       -1.58371
H         -4.70143        0.54450        0.38603
H         -5.13389        0.06358       -1.12140
H         -0.91251       -2.26020        0.23909
H          0.06082       -1.13226        1.79310
H          3.96410        2.35396       -0.77377
H          3.00293        3.28380       -1.91690
H          2.64281        3.37683       -0.19535
H          2.28493        0.86979       -1.95047
H          0.99117        1.94846       -1.46106
H          1.31878        1.41827        2.63842
H          3.86374        1.16130        1.24899
H          3.27111       -0.36720        1.93491
H          4.39993       -0.04150       -0.75379
H          3.90260       -1.45233       -0.07266
H         -0.07585       -3.90692        1.02627
H         -0.06541       -3.76265       -0.78905
H          2.08203       -2.68285       -0.71213
H          2.10297       -2.81339        1.11109
