48
1299.log
C         -3.52222       -0.30792        2.10245
C         -3.43490       -0.41020        0.58989
N         -4.66335       -0.88502        0.04848
O         -2.34263       -1.32353        0.27160
P         -1.20543       -0.99956       -0.81865
C         -2.09730       -1.22211       -2.42543
C         -0.37444       -2.63043       -0.72556
Rh         0.13660        0.85006       -0.71708
Cl        -1.05601        1.88177        1.07329
C          4.26300       -0.38928       -0.46416
C          3.16398       -1.42845       -0.31511
N          3.71871       -2.74163       -0.24850
O          2.38861       -1.18307        0.87408
P          1.33109        0.03542        1.04105
C          0.38176       -0.72188        2.41062
C          2.29933        1.25769        2.01926
C          0.10984        2.81451       -1.76830
C          1.24254        2.63012       -0.90565
H         -2.66168        0.23888        2.47375
H         -4.42844        0.22780        2.36658
H         -3.54373       -1.30246        2.54202
H         -3.21496        0.57300        0.15953
H         -4.63053       -0.95854       -0.96097
H         -4.89805       -1.79264        0.43447
H         -2.79381       -0.39773       -2.57781
H         -1.36939       -1.21043       -3.23250
H         -2.63906       -2.16767       -2.42765
H          0.24255       -2.75172       -1.61256
H          0.25926       -2.67676        0.15661
H         -1.12639       -3.41617       -0.67988
H         -0.74077        1.54767       -1.77543
H          0.97431        0.21460       -1.81372
H          3.81075        0.58221       -0.64563
H          4.86231       -0.34724        0.44244
H          4.89689       -0.65861       -1.30356
H          2.48848       -1.37536       -1.18076
H          4.34983       -2.81839        0.54199
H          2.99128       -3.43904       -0.14227
H          1.07339       -1.28431        3.03627
H         -0.08659        0.07355        2.98353
H         -0.39442       -1.37933        2.02492
H          1.61233        2.01235        2.39354
H          3.05788        1.73698        1.40482
H          2.77398        0.73931        2.85158
H          0.29287        2.86086       -2.83849
H         -0.65719        3.50693       -1.43162
H          1.25710        3.21927        0.00685
H          2.21693        2.54927       -1.38250
