50
13.log
C         -2.53557        1.30276        2.70360
C         -3.29363        1.43304        1.38903
N         -2.41944        1.52243        0.22922
P         -1.73384        0.14436       -0.44799
C         -3.21955       -0.58189       -1.23389
C         -0.85070        1.03742       -1.83748
C         -1.47926        1.02763       -3.20301
O          0.06359        1.78875       -1.55908
Rh        -0.31311       -1.45088        0.36303
Cl         0.20132       -1.23425       -1.99526
C          4.33041        1.01364       -1.33937
C          2.97373        0.41703       -0.99681
N          2.78064        0.42378        0.45344
P          1.22815        0.13642        1.06909
C          1.68560        0.14966        2.84742
C          0.33505        2.75871        0.61741
C          1.61195        3.40274        0.19225
O          0.37962        1.55370        1.09793
C          0.41635       -3.55380        0.40997
C          1.47050       -2.73929        0.77691
H         -3.22934        1.23536        3.53783
H         -1.88633        2.16321        2.84866
H         -1.92335        0.40276        2.67678
H         -3.91099        2.33802        1.40154
H         -3.95092        0.57070        1.25472
H         -1.70998        2.25323        0.36426
H         -3.80232        0.20017       -1.71778
H         -3.81520       -1.05999       -0.45760
H         -2.91723       -1.34587       -1.94694
H         -2.34271        1.69228       -3.16678
H         -0.76551        1.41527       -3.92707
H         -1.80022        0.03482       -3.49842
H         -1.46629       -2.36312        0.04021
H         -0.81946       -1.54278        1.78117
H          5.13149        0.41738       -0.90420
H          4.46033        1.03426       -2.41775
H          4.41051        2.02917       -0.95931
H          2.90360       -0.59412       -1.41627
H          2.17318        1.01639       -1.43591
H          3.46840       -0.16890        0.90866
H          0.77649        0.25805        3.43410
H          2.18023       -0.77519        3.13045
H          2.34670        0.99463        3.03468
H          2.50284        2.80549        0.37661
H          1.67679        4.35626        0.71826
H          1.52618        3.63248       -0.86811
H         -0.10562       -4.13515        1.16101
H          0.36827       -3.94725       -0.60007
H          2.24972       -2.52378        0.05190
H          1.78018       -2.70241        1.81615
