50
130.log
C         -0.71235        3.96055       -0.92884
C         -1.69563        2.91582       -0.41406
C         -0.99272        1.63710       -0.04891
O          0.13125        1.65474        0.48563
P         -1.93454        0.03735        0.16991
C         -3.60929        0.29705       -0.54427
C         -4.46430       -0.94194       -0.29054
N         -2.43489        0.27436        1.91419
O         -2.92418        1.35426        2.17206
O         -2.20361       -0.61469        2.69479
Rh        -0.31254       -1.33471       -0.61099
Cl        -0.65036        0.67560       -2.04438
C          3.67180        3.16046       -0.57801
C          3.07811        2.12066        0.36333
C          2.43443        0.99423       -0.37748
O          2.54821        0.75614       -1.54656
P          1.30612       -0.19092        0.57483
C          1.42623        0.11832        2.39413
C          0.95349       -1.08237        3.20742
N          2.69989       -1.41019        0.69916
O          2.47017       -2.59134        0.78865
O          3.80742       -0.90708        0.75636
C         -0.21953       -2.73707       -2.34120
C          1.06079       -2.31232       -1.86069
H         -1.23558        4.88500       -1.15689
H         -0.22581        3.59935       -1.83197
H          0.05100        4.16104       -0.18183
H         -2.17604        3.26906        0.50487
H         -2.47074        2.72225       -1.15528
H         -3.48945        0.46329       -1.61781
H         -4.05638        1.18301       -0.08392
H         -4.62707       -1.09423        0.77524
H         -5.43413       -0.83528       -0.77106
H         -3.97791       -1.83220       -0.68874
H         -1.31077       -2.16193       -1.44199
H         -0.27034       -2.43986        0.39718
H          4.16620        3.94426       -0.01000
H          4.39664        2.69464       -1.24040
H          2.89082        3.60768       -1.18837
H          2.33445        2.55893        1.03100
H          3.86469        1.67417        0.97866
H          0.81894        0.99403        2.62899
H          2.47320        0.34622        2.61840
H          1.07747       -0.87481        4.26820
H          1.51915       -1.97990        2.96805
H         -0.09936       -1.28735        3.02282
H         -0.48113       -3.78178       -2.20424
H         -0.56499       -2.32760       -3.28809
H          1.61655       -1.59498       -2.46208
H          1.68182       -3.06072       -1.37902
