50
1302.log
C         -4.47130        0.99535       -1.69486
C         -3.76949        1.02922       -0.33863
C         -4.77148        1.25392        0.79910
C         -3.09753       -0.29241       -0.08089
O         -3.57601       -1.36624       -0.32137
P         -1.38065       -0.28126        0.68131
C         -1.30551        1.08783        1.89109
C         -1.66403       -1.72988        1.78614
O         -1.40878       -1.72685        2.95938
Rh         0.21945       -0.75349       -0.85360
Cl        -0.49034        1.53445       -1.14531
C          2.14676        3.61529        0.02309
C          3.09688        2.45877        0.36274
C          3.65225        1.81595       -0.89698
C          2.33074        1.49876        1.24080
O          1.90448        1.81589        2.32478
P          1.94933       -0.23922        0.65645
C          1.80528       -0.99636        2.31605
C          2.14316       -3.55945       -0.28136
O          2.94705       -3.02562        0.31311
C          1.07388       -0.43756       -2.93109
C          1.78718       -1.46015       -2.35688
H         -5.02635        1.91728       -1.84876
H         -3.73808        0.89266       -2.49104
H         -5.15761        0.15349       -1.74247
H         -3.01834        1.82441       -0.33870
H         -5.25254        2.22130        0.67774
H         -4.27947        1.22958        1.76948
H         -5.53388        0.47834        0.77882
H         -1.84956        0.78030        2.78526
H         -1.73406        1.99275        1.46494
H         -0.26985        1.29880        2.15892
H         -2.04010       -2.62495        1.25620
H         -0.92075       -1.25944       -1.69839
H          0.34166       -2.20560       -0.45616
H          1.30501        3.25045       -0.56206
H          2.67464        4.37204       -0.55159
H          1.76610        4.06755        0.93537
H          3.91511        2.85620        0.97617
H          4.44609        1.10607       -0.66830
H          2.85198        1.30291       -1.42961
H          4.06130        2.57859       -1.55592
H          1.68799       -2.07439        2.22264
H          2.69009       -0.76596        2.90980
H          0.92325       -0.60384        2.82350
H          3.27603       -0.56840        0.39485
H          0.29652       -0.64915       -3.65692
H          1.47513        0.57001       -2.97667
H          2.78426       -1.27710       -1.96920
H          1.58107       -2.48835       -2.62941
