38
1304.log
C          2.56705        1.69884       -1.87800
P          1.71552        0.86857       -0.47739
Br         1.07672        2.69333        0.58948
C          3.14381        0.44680        0.61730
C          3.98087       -0.68794        0.02336
C          5.14262       -0.91984        0.84310
N          6.06373       -1.07555        1.50081
Rh         0.11372       -0.66326       -1.00247
Cl         1.07545       -2.22485        0.53767
C         -0.73342       -0.04281        2.40209
P         -1.36681       -0.19354        0.68936
Br        -2.93487       -1.69282        1.06374
C         -2.45378        1.30222        0.59736
C         -3.34084        1.26822       -0.64859
C         -4.06605        2.50592       -0.78719
N         -4.63043        3.49435       -0.88380
C          0.08860       -2.29557       -2.56433
C         -1.09582       -2.21731       -1.77850
H          3.32621        2.39669       -1.52094
H          1.82433        2.24068       -2.46480
H          3.02595        0.94900       -2.52173
H          2.74638        0.13234        1.58831
H          3.75300        1.34696        0.76418
H          3.38262       -1.60621       -0.00284
H          4.31692       -0.44993       -0.99118
H          1.05167       -1.15052       -2.12176
H         -0.52064        0.33732       -1.96043
H         -0.15888       -0.93879        2.64253
H         -0.08589        0.82965        2.48320
H         -1.56373        0.05808        3.10217
H         -1.80339        2.18162        0.57029
H         -3.06746        1.35823        1.50218
H         -4.06352        0.44683       -0.58958
H         -2.72481        1.12622       -1.54496
H          0.03054       -2.01180       -3.61083
H          0.76858       -3.11925       -2.36730
H         -1.25516       -3.00089       -1.04164
H         -2.00961       -1.88318       -2.26500
