44
1305.log
C         -4.05025        1.65949        0.79847
C         -3.88256        0.46374       -0.12829
P         -2.18146       -0.25688        0.04467
N         -2.18886       -0.96681        1.54524
C         -2.54251       -1.77848       -1.03458
N         -1.32334       -2.52210       -1.01316
O         -0.39459       -2.08827       -1.67110
O         -1.25444       -3.49498       -0.29518
Rh        -0.36138        0.96998       -0.49135
Cl        -0.23292        1.47981        1.87105
C          0.80148       -2.28153        2.04600
C          1.48318       -2.18540        0.68690
P          1.36460       -0.53141       -0.14888
N          2.28342       -0.73402       -1.52872
C          2.64403        0.29423        1.00479
N          3.90867        0.22164        0.33019
O          4.32884        1.21652       -0.21079
O          4.45991       -0.86192        0.30790
C         -0.15474        3.13410       -1.04742
C          1.08451        2.42991       -1.02356
H         -3.90968        1.36909        1.83844
H         -5.04296        2.09188        0.69250
H         -3.31382        2.42791        0.56841
H         -4.61271       -0.31484        0.11590
H         -4.02627        0.76349       -1.16855
H         -3.09202       -1.09817        1.98731
H         -1.53691       -0.48277        2.16343
H         -3.35270       -2.37309       -0.61039
H         -2.75326       -1.42111       -2.04212
H         -1.31174        2.14538       -0.72880
H         -0.46674        0.61484       -1.95305
H         -0.25062       -2.52124        1.92295
H          1.25958       -3.07108        2.63780
H          0.87669       -1.34682        2.60002
H          2.56358       -2.35315        0.77657
H          1.08882       -2.94818        0.01572
H          1.69573       -0.81467       -2.34782
H          2.95409       -1.49673       -1.49594
H          2.38587        1.32981        1.21389
H          2.67665       -0.27836        1.93171
H         -0.54411        3.45601       -2.00882
H         -0.34499        3.83791       -0.24154
H          1.77477        2.69001       -0.22840
H          1.58166        2.23440       -1.96876
