38
1307.log
C         -4.81989        1.15234       -1.42735
C         -3.37390        0.87284       -1.03975
C         -3.22258        0.71233        0.46723
P         -1.48380        0.42317        0.95203
O         -1.68323        0.56571        2.52673
F         -0.93248        1.93084        0.66780
Rh        -0.07269       -1.14975        0.12084
Cl        -0.11981        0.13516       -1.88159
C          3.72644        2.41529       -1.92291
C          3.09309        1.19165       -1.27293
C          2.30912        1.57463       -0.02246
P          1.66961        0.07668        0.82024
O          2.98990       -0.70003        1.24119
F          1.37152        0.81914        2.26861
C         -0.29171       -2.99149       -1.11974
C          1.06728       -2.62697       -0.82972
H         -5.46618        0.33612       -1.11006
H         -5.17115        2.06932       -0.95889
H         -4.90818        1.26196       -2.50513
H         -2.73427        1.68991       -1.37917
H         -3.02846       -0.03557       -1.53872
H         -3.54175        1.61253        0.99950
H         -3.80675       -0.13506        0.83235
H         -0.88913        0.36485        3.02921
H         -1.20101       -2.04267       -0.43645
H         -0.08222       -1.94946        1.41633
H          2.95786        3.12880       -2.20902
H          4.27624        2.12784       -2.81552
H          4.41531        2.90685       -1.23765
H          2.40842        0.71947       -1.97931
H          3.87180        0.46505       -1.02040
H          2.93460        2.11622        0.69618
H          1.46135        2.20358       -0.29053
H          3.70884       -0.13250        1.54151
H         -0.67144       -3.90675       -0.67424
H         -0.63286       -2.83244       -2.13944
H          1.65384       -2.22884       -1.65341
H          1.63377       -3.27469       -0.16701
