50
131.log
C          3.06923       -0.93754       -2.06942
C          3.25349       -0.14502       -0.81219
O          3.89899        0.87520       -0.76696
C          2.61868       -0.71430        0.42682
P          0.89122       -1.38783        0.31105
C          1.19307       -3.13770       -0.17142
C          0.65000       -1.64552        2.13793
N          1.82379       -2.27944        2.71992
Rh        -0.84739       -0.43441       -0.84896
Cl        -2.26997       -1.75045        0.61338
C          2.55931        3.33348        0.62103
C          1.25127        2.79139        0.12554
O          0.95762        2.74179       -1.04219
C          0.28500        2.30290        1.17570
P         -1.15278        1.49766        0.34064
C         -1.93764        2.92161       -0.51106
C         -2.30179        1.42994        1.79398
N         -1.74687        0.54148        2.79755
C         -2.04892       -1.24109       -2.54834
C         -2.52334        0.01352       -2.04548
H          3.39900       -1.96302       -1.92286
H          3.62172       -0.48167       -2.88677
H          2.00372       -0.93978       -2.30747
H          2.61948        0.05384        1.20475
H          3.23489       -1.54269        0.78851
H          2.02433       -3.56017        0.39043
H          1.39231       -3.21426       -1.23858
H          0.27770       -3.68860        0.04886
H          0.49327       -0.66070        2.58688
H         -0.27708       -2.21860        2.26429
H          1.91260       -2.03407        3.69873
H          1.74422       -3.28826        2.66678
H         -0.79487       -1.65766       -1.77671
H          0.04965        0.32667       -1.78598
H          2.78812        4.26644        0.11125
H          2.56523        3.47858        1.69680
H          3.33679        2.62125        0.33855
H          0.76112        1.58970        1.85199
H         -0.06325        3.14872        1.77656
H         -1.89533        3.80686        0.12312
H         -2.97786        2.67289       -0.71797
H         -1.42058        3.11728       -1.44559
H         -3.29396        1.12071        1.42438
H         -2.38992        2.44255        2.20773
H         -2.31788        0.56587        3.63800
H         -1.81842       -0.40568        2.42293
H         -1.61378       -1.25286       -3.54406
H         -2.64585       -2.12237       -2.32779
H         -3.45429       -0.00352       -1.48366
H         -2.41707        0.88140       -2.68994
