40
1311.log
C          5.47742        1.06516       -0.31336
C          4.03556        1.35139        0.08821
C          3.09884        0.25788       -0.41154
P          1.34160        0.54995        0.03137
N          1.50038        0.95382        1.64940
F          1.18356        2.07687       -0.50706
Rh        -0.25670       -0.94175       -0.59831
Cl         0.54432       -2.09776        1.37732
C         -2.88402        3.77018       -1.04469
C         -2.60381        2.28019       -0.89971
C         -2.10812        1.93678        0.49904
P         -1.77516        0.14180        0.66590
N         -1.52495        0.03775        2.31102
F         -3.34115       -0.34123        0.55149
C         -0.22679       -2.87814       -1.71182
C         -1.49291       -2.54917       -1.11195
H          6.13433        1.85253        0.04785
H          5.81180        0.11929        0.10771
H          5.57132        1.01016       -1.39591
H          3.72035        2.30869       -0.32981
H          3.96335        1.42420        1.17363
H          3.14155        0.17868       -1.50209
H          3.37078       -0.71620        0.00404
H          1.81717        0.13112        2.15557
H          0.60920        1.23360        2.05292
H          0.71601       -1.78171       -1.46121
H         -0.66852       -0.18079       -1.83670
H         -3.64456        4.08926       -0.33479
H         -3.23627        3.99448       -2.04826
H         -1.97866        4.34451       -0.86174
H         -3.51139        1.70951       -1.10848
H         -1.84398        1.97791       -1.62384
H         -2.85001        2.20944        1.25524
H         -1.17840        2.46927        0.71046
H         -2.36080        0.15070        2.87167
H         -1.01806       -0.81142        2.56002
H         -0.17519       -2.88441       -2.79729
H          0.33782       -3.68725       -1.25421
H         -1.79468       -3.13279       -0.24543
H         -2.31864       -2.31211       -1.77693
