50
1314.log
C          4.26671        2.28974        1.19840
C          3.53313        1.05739        0.67788
P          1.79564        1.27727        0.03431
C          2.09386        2.62910       -1.16584
C          1.16030        2.11470        1.57838
O         -0.13010        2.61147        1.30280
C         -0.42635        2.38409        0.04569
O         -1.60002        2.89903       -0.23360
O         -1.93086        2.75340       -1.60511
Rh         1.14243       -0.73949       -0.80947
Cl         2.10172       -1.79693        1.12171
C         -0.79682       -3.56354        1.74250
C         -1.55870       -2.82575        0.64784
P         -0.88089       -1.14070        0.27477
C         -1.23743       -0.37947        1.90381
C         -2.33809       -0.55878       -0.73519
O         -3.53024       -0.54938        0.05088
C         -4.33284        0.48892       -0.04038
O         -4.20028        1.44276       -0.76454
O         -5.35143        0.34154        0.80425
C          1.91542       -2.38385       -2.12995
C          0.68315       -2.76716       -1.63975
H          5.32446        2.05237        1.29836
H          3.90896        2.59098        2.17980
H          4.17873        3.13276        0.51668
H          3.49601        0.28969        1.45450
H          4.09461        0.62836       -0.15739
H          1.30647        2.61298       -1.91427
H          2.10355        3.59687       -0.66710
H          3.05421        2.44863       -1.64762
H          1.80013        2.95923        1.85048
H          1.12038        1.40981        2.41514
H         -2.87464        2.48285       -1.56395
H          2.44800       -0.41540       -1.48022
H          0.47860       -0.06910       -1.98947
H         -0.98071       -3.11296        2.71469
H          0.27592       -3.53155        1.56296
H         -1.11410       -4.60408        1.78514
H         -1.55403       -3.40892       -0.27624
H         -2.60268       -2.67728        0.94315
H         -0.40706       -0.63446        2.56229
H         -2.16610       -0.78300        2.30580
H         -1.31667        0.70086        1.82800
H         -2.12993        0.42912       -1.14838
H         -2.47864       -1.25244       -1.57139
H         -5.95619        1.09553        0.74142
H          2.01489       -2.04593       -3.15561
H          2.81631       -2.78841       -1.68016
H          0.65465       -3.48916       -0.83277
H         -0.18557       -2.74404       -2.29043
