44
1318.log
C          1.53118        2.09445       -1.76556
P          1.48205        0.63798       -0.66251
C          1.26329        1.47064        0.95774
O          0.64400        2.49550        1.06876
C          3.24658        0.04508       -0.74736
C          3.95710       -0.04443        0.59666
C          4.11599        1.30145        1.20595
O          3.56798        2.29022        0.78671
Rh        -0.05452       -1.06950       -0.78363
Cl         1.24409       -1.81659        1.09944
C         -1.34270        0.13082        2.39621
P         -1.67759       -0.29254        0.65002
C         -2.98940       -1.56352        0.91185
O         -3.22481       -2.09466        1.95831
C         -2.84524        1.03718        0.11744
C         -2.12395        2.23220       -0.48938
C         -3.06593        3.33579       -0.86401
O         -4.25316        3.32398       -0.70209
C          0.20939       -3.09934       -1.69972
C         -1.00679       -2.96981       -0.96226
H          0.59177        2.63629       -1.68868
H          2.34649        2.74354       -1.44791
H          1.67668        1.76679       -2.79388
H          1.58539        0.88876        1.84013
H          3.23626       -0.94310       -1.21162
H          3.78039        0.73834       -1.40385
H          4.93623       -0.51731        0.49131
H          3.36875       -0.68081        1.27452
H          4.77330        1.34660        2.09211
H          0.92434       -1.73363       -1.75810
H         -0.81118       -0.52927       -1.98047
H         -2.25871       -0.01536        2.96968
H         -0.57131       -0.53766        2.77794
H         -1.00449        1.16198        2.47822
H         -3.56615       -1.80273       -0.00624
H         -3.52384        0.61195       -0.62823
H         -3.43809        1.35123        0.98112
H         -1.58417        1.91778       -1.38886
H         -1.37932        2.64441        0.19932
H         -2.55714        4.20758       -1.32159
H          0.13445       -3.22745       -2.77568
H          1.00903       -3.67835       -1.24493
H         -1.06736       -3.48115       -0.00496
H         -1.93356       -2.98368       -1.52790
