48
1321.log
C         -4.43565        1.62820       -0.96663
C         -2.92645        1.80442       -0.88882
C         -2.49742        2.42309        0.43502
O         -1.09955        2.64585        0.45996
P          0.08851        1.56839        0.36760
C          1.19896        3.08251        0.00453
C          1.23682        1.10155        1.86021
O          0.77752        0.09865        2.62899
Rh         1.09079       -0.09330       -0.95743
Cl         2.64344        0.46554        0.84624
C         -4.25277       -2.07786       -0.60408
C         -2.99772       -2.09004        0.25840
C         -1.79967       -2.60320       -0.53120
O         -0.64725       -2.76354        0.28908
P          0.43781       -1.61216        0.55121
C          1.63905       -2.67054        1.44301
C         -0.30525       -0.54271        1.91963
O         -1.08638        0.37625        1.37346
C          2.56965        0.30385       -2.66367
C          2.45318       -1.09262       -2.15927
H         -4.78606        0.99283       -0.15744
H         -4.71813        1.17286       -1.91240
H         -4.93544        2.59138       -0.88738
H         -2.41661        0.84216       -0.97949
H         -2.57949        2.44566       -1.70225
H         -2.94258        3.41687        0.56023
H         -2.80021        1.78562        1.26731
H          1.04636        3.83087        0.78309
H          2.26240        2.86815       -0.07049
H          0.86925        3.51847       -0.93795
H          1.65367        1.90289        2.47123
H          1.75198        0.97400       -2.06563
H         -0.01427       -0.40830       -1.91775
H         -5.09862       -1.70238       -0.03501
H         -4.11039       -1.44056       -1.47259
H         -4.48980       -3.08215       -0.94896
H         -3.14809       -2.73563        1.12628
H         -2.77122       -1.08476        0.61741
H         -2.00614       -3.59907       -0.93690
H         -1.56838       -1.91955       -1.35799
H          1.54042       -2.50259        2.51502
H          1.40652       -3.70453        1.20153
H          2.65679       -2.44278        1.13701
H         -0.82082       -1.17404        2.66102
H          2.29165        0.43453       -3.70802
H          3.52470        0.78736       -2.45749
H          3.33822       -1.46725       -1.64356
H          2.09455       -1.81671       -2.88726
