36
1327.log
C          1.03816        1.38584        2.21837
P          1.32180        0.70484        0.53777
C          1.89405        2.20384       -0.23231
N          2.25506        3.18036       -0.70579
C          2.99249       -0.02732        0.90256
N          3.65628       -0.33117       -0.36174
O          3.06792        0.00475       -1.36519
O          4.72161       -0.88902       -0.32567
Rh        -0.10512       -0.78927       -0.45286
Cl         0.29544       -1.84161        1.67514
C         -2.48300        0.39604        2.03652
P         -2.07401        0.05386        0.28386
C         -3.48745       -0.99012       -0.03031
N         -4.38659       -1.67212       -0.22404
C         -2.82159        1.51549       -0.61221
N         -1.74626        2.49657       -0.64362
O         -0.90980        2.33932        0.23153
O         -1.74041        3.35693       -1.47452
C          0.24867       -2.73891       -1.51075
C         -1.11805       -2.50217       -1.22893
H          1.94478        1.88156        2.56504
H          0.78182        0.56506        2.88548
H          0.23131        2.11070        2.18714
H          2.86333       -0.95048        1.48207
H          3.62899        0.65307        1.47833
H          1.12560       -1.44893       -1.03539
H         -0.25020       -0.05410       -1.76907
H         -3.55747        0.53209        2.16068
H         -1.94119        1.27198        2.38581
H         -2.15522       -0.46996        2.61321
H         -3.66869        1.93098       -0.05607
H         -3.14847        1.27986       -1.62912
H          0.58168       -2.69155       -2.54217
H          0.77585       -3.46809       -0.90225
H         -1.57799       -3.07684       -0.42875
H         -1.78675       -2.28892       -2.05839
