44
1330.log
C          3.32381       -1.55247        1.91040
O          2.86289       -1.31605        0.59244
C          2.27881       -0.10855        0.38913
Cl         3.55497        1.15217        0.08044
P          1.14361       -0.32176       -1.07835
C          2.15738       -1.49465       -2.05144
C          1.38396        1.16670       -2.11341
Rh        -0.94599       -1.07769       -0.52244
Cl        -0.03801       -1.99567        1.48654
C          0.97160        3.47623        0.85369
O          0.28593        2.24192        0.70530
C         -1.06045        2.34982        0.51115
Cl        -1.46660        2.92323       -1.15160
P         -1.77463        0.64218        0.69631
C         -3.54648        1.07123        0.49965
C         -1.66246        0.54860        2.51931
C         -1.87783       -3.07566       -0.88556
C         -2.72470       -2.17294       -0.16991
H          2.48210       -1.55494        2.60843
H          3.78861       -2.53556        1.89605
H          4.05864       -0.79717        2.20649
H          1.72658        0.27050        1.25700
H          2.19077       -2.45745       -1.54560
H          1.69030       -1.60894       -3.03005
H          3.17047       -1.10887       -2.16491
H          1.08213        2.06382       -1.58527
H          0.74855        1.04553       -2.99010
H          2.42553        1.25095       -2.41884
H         -0.56056       -2.36196       -1.26287
H         -1.51523       -0.50376       -1.80847
H          0.81672        4.11331       -0.02171
H          0.62282        4.00214        1.74836
H          2.02721        3.23293        0.94992
H         -1.52880        3.08370        1.18667
H         -4.14475        0.25130        0.89315
H         -3.77527        1.19773       -0.55664
H         -3.78320        1.98757        1.04042
H         -2.18907        1.38416        2.98136
H         -2.09671       -0.39656        2.84057
H         -0.61416        0.54836        2.81203
H         -2.16792       -3.34881       -1.89621
H         -1.43467       -3.89189       -0.32188
H         -2.88418       -2.38233        0.88477
H         -3.60977       -1.80630       -0.68352
