42
1335.log
C         -3.75628       -0.71678       -1.57028
C         -3.08196        0.62113       -1.29886
P         -1.89367        0.54665        0.10458
C         -1.47371        2.35115        0.25438
Cl        -0.83044        2.90183       -1.29695
C         -3.06098        0.49961        1.54428
O         -4.11867       -0.06341        1.57700
O         -2.52699        1.14761        2.57609
Rh        -0.43339       -1.20139        0.22418
Cl        -0.14324       -0.99559       -2.13549
C          3.64224        0.52395        2.36723
C          2.25354       -0.06422        2.15952
P          1.60076       -0.18397        0.44249
C          2.93239       -0.94325       -0.59142
Cl         4.40780        0.03993       -0.72259
C          1.76629        1.57888       -0.10260
O          1.61635        2.50955        0.64456
O          2.00208        1.65627       -1.39213
C         -0.85844       -3.37844       -0.03413
C          0.52300       -3.09811        0.17648
H         -4.25154       -1.08940       -0.67581
H         -3.01772       -1.44200       -1.90713
H         -4.49883       -0.60007       -2.35672
H         -3.82392        1.39334       -1.06550
H         -2.50751        0.92699       -2.17837
H         -0.71203        2.52211        1.01831
H         -2.36697        2.94402        0.46706
H         -3.07553        1.06199        3.37663
H         -1.70180       -2.03748        0.05690
H         -0.59688       -1.29499        1.73364
H          3.71989        1.50656        1.90905
H          3.82688        0.63249        3.43449
H          4.41470       -0.11743        1.95311
H          2.19241       -1.07397        2.57744
H          1.50537        0.54801        2.67679
H          3.21478       -1.90815       -0.16503
H          2.53179       -1.07331       -1.60110
H          1.98439        2.57110       -1.72552
H         -1.40252       -3.89566        0.75033
H         -1.16149       -3.65481       -1.03990
H          1.17644       -3.20716       -0.68376
H          0.96754       -3.41859        1.11499
