50
1347.log
C          4.36355       -1.06584        1.40932
N          3.22309       -0.18252        1.31537
C          3.15944        0.55103        0.07528
C          3.97149        1.80326        0.19612
O          4.36501        2.47809       -0.71827
P          1.35462        0.93795       -0.31375
C          1.05269        2.09597        1.07965
C          1.56593        2.04310       -1.75927
Rh         0.18511       -1.02307       -0.59860
Cl         0.11393       -1.23639        1.79858
C         -4.14703        1.31539        2.28688
N         -3.89239        1.12050        0.87249
C         -2.50552        1.13406        0.49705
C         -2.17114        2.20141       -0.47773
O         -2.95520        3.00544       -0.91179
P         -2.03239       -0.47236       -0.40596
C         -3.05497       -1.62937        0.56948
C         -3.08237       -0.31872       -1.89762
C          0.98474       -3.11420       -0.78798
C         -0.43623       -3.05354       -0.80877
H          4.40219       -1.81765        0.60445
H          5.28023       -0.47488        1.36307
H          4.32767       -1.58099        2.36681
H          2.36066       -0.69988        1.49255
H          3.52075       -0.01501       -0.80952
H          4.19422        2.06585        1.24768
H          1.79899        2.88896        1.05321
H          1.14752        1.52808        2.00508
H          0.05870        2.53299        1.02578
H          2.20786        2.88969       -1.52357
H          2.01630        1.46063       -2.56225
H          0.59628        2.40016       -2.10059
H          1.57783       -1.63644       -0.71080
H          0.17131       -0.83217       -2.10152
H         -5.21865        1.23290        2.46222
H         -3.64060        0.53100        2.84902
H         -3.80464        2.28920        2.66130
H         -4.38069        1.82677        0.32433
H         -1.83547        1.15702        1.36488
H         -1.12633        2.15162       -0.84384
H         -2.54747       -1.85945        1.50469
H         -4.01814       -1.16135        0.76628
H         -3.19218       -2.54394       -0.00551
H         -3.09691       -1.28025       -2.40909
H         -4.09384       -0.03897       -1.60704
H         -2.66990        0.42812       -2.57305
H          1.50157       -3.38607       -1.70345
H          1.45651       -3.49229        0.11481
H         -0.95020       -3.41662        0.07532
H         -0.94059       -3.28329       -1.74338
