44
1350.log
C          2.53303        2.05214       -1.91936
P          1.02116        1.24341       -1.25909
C         -0.11792        1.49191       -2.67609
C          0.48083        2.61858       -0.14209
O         -0.73293        2.23398        0.48551
C         -0.84909        2.62040        1.79137
F         -1.03892        3.98576        1.88085
Rh         1.36056       -0.80752       -0.30423
Cl         1.73251        0.33023        1.77221
C         -1.29162       -3.10560        0.03113
P         -0.75282       -1.38270        0.34409
C         -1.17426       -1.22166        2.11352
C         -2.17894       -0.49740       -0.43643
O         -3.38989       -0.97763        0.13457
C         -4.49628       -0.28230       -0.25128
F         -4.77271       -0.48242       -1.58738
C          3.26354       -1.90956        0.08753
C          2.09670       -2.58528        0.56746
H          2.30997        3.05793       -2.27487
H          2.92481        1.45243       -2.73951
H          3.28225        2.10196       -1.12980
H          0.10331        0.74442       -3.43539
H         -1.14678        1.36868       -2.34951
H          0.01644        2.48974       -3.09185
H          0.33377        3.54834       -0.70952
H          1.26937        2.76873        0.60463
H         -1.75031        2.15341        2.20525
H          0.04456        2.39036        2.39081
H          2.84749       -0.61025       -0.63157
H          1.14993       -1.50562       -1.63612
H         -2.34140       -3.20898        0.29703
H         -0.68934       -3.78593        0.63007
H         -1.15018       -3.34013       -1.02201
H         -0.94892       -0.21177        2.44780
H         -2.22628       -1.45542        2.26437
H         -0.54856       -1.91342        2.67661
H         -2.15957       -0.69325       -1.51704
H         -2.07322        0.58059       -0.26100
H         -5.35524       -0.66503        0.31132
H         -4.38578        0.80977       -0.13312
H          3.79904       -2.35554       -0.74587
H          3.91383       -1.45508        0.83019
H          1.95514       -2.61334        1.64484
H          1.81427       -3.50674        0.06526
