46
1371.log
C          3.59123        1.28076        1.89205
C          3.46084        0.94379        0.41428
P          1.85066        0.14822       -0.00056
Cl         2.24677       -0.45142       -1.83243
C          1.94345       -1.44699        0.96923
C          3.21828       -2.19668        0.68310
C          3.14017       -3.27269       -0.36464
O          4.24406       -1.92884        1.25812
Rh        -0.00400        1.39837        0.32892
Cl        -0.03848        1.91238       -1.98948
C         -2.08809       -2.34338       -2.15214
C         -1.02295       -1.35001       -1.70452
P         -1.47127       -0.33130       -0.22776
Cl        -3.34876        0.08951       -0.69838
C         -1.69059       -1.69619        1.05759
C         -3.14530       -1.89833        1.39469
C         -3.67096       -0.95613        2.44030
O         -3.81027       -2.75222        0.86659
C         -0.84688        3.46534        0.77703
C         -1.88828        2.59306        0.56078
H          3.78108        0.37941        2.46871
H          4.42441        1.96263        2.04467
H          2.68216        1.75625        2.25883
H          4.27041        0.27881        0.09975
H          3.50070        1.85248       -0.19617
H          1.91559       -1.12892        2.01331
H          1.05718       -2.03724        0.74011
H          2.14008       -3.40020       -0.76357
H          3.82131       -3.02143       -1.17588
H          3.48771       -4.20985        0.06715
H          1.04241        2.44428        0.58632
H          0.00388        1.06693        1.81449
H         -2.92717       -1.83099       -2.61502
H         -1.66165       -3.02036       -2.88978
H         -2.47172       -2.93568       -1.32310
H         -0.09182       -1.86851       -1.45633
H         -0.79885       -0.63690       -2.50386
H         -1.27643       -2.62076        0.65090
H         -1.13403       -1.39118        1.94400
H         -4.75358       -0.88464        2.37785
H         -3.21485        0.02558        2.33455
H         -3.40650       -1.35084        3.42119
H         -0.58649        3.77490        1.78325
H         -0.53238        4.13310       -0.01765
H         -2.39364        2.60642       -0.39800
H         -2.47661        2.23168        1.39810
