50
1373.log
C          5.47737        1.04420       -1.06205
N          4.13701        1.36417       -1.51617
C          3.14441        0.36580       -1.16012
C          2.77019        0.49367        0.31627
P          1.24918       -0.47982        0.73034
C          1.13139       -0.08466        2.50900
N          2.11709       -2.06723        0.83647
O          2.16969       -2.70938       -0.18527
O          2.68665       -2.32752        1.86723
Rh        -0.53582       -0.78490       -0.64390
Cl        -0.78004       -2.38145        1.15534
C          1.24314        4.65193        0.31024
N         -0.12337        4.23495        0.07550
C         -0.40152        2.89784        0.54798
C         -1.79901        2.46262        0.12592
P         -2.01199        0.64410        0.33124
C         -2.53153        0.46879        2.07251
N         -3.64543        0.57551       -0.42303
O         -3.72447        1.04115       -1.53750
O         -4.54122        0.04519        0.18963
C         -0.88618       -2.39236       -2.17407
C         -2.06229       -1.67450       -1.83995
H          5.51326        1.09940        0.02556
H          6.16940        1.78184       -1.46240
H          5.81083        0.04196       -1.36936
H          4.14773        1.47770       -2.52453
H          2.24671        0.55216       -1.75924
H          3.48467       -0.66417       -1.36843
H          2.56548        1.54461        0.53585
H          3.58483        0.16030        0.96660
H          2.08172       -0.31699        2.99032
H          0.34220       -0.68428        2.95928
H          0.90899        0.97508        2.61860
H          0.36808       -1.74097       -1.40505
H         -0.24198        0.24852       -1.70888
H          1.54055        4.60611        1.36969
H          1.36433        5.67357       -0.04199
H          1.90792        4.00588       -0.26414
H         -0.76755        4.89669        0.49891
H         -0.29021        2.79972        1.64682
H          0.32643        2.22552        0.07388
H         -1.92351        2.68233       -0.93831
H         -2.56867        2.99420        0.69407
H         -3.44035        1.04005        2.26118
H         -1.72696        0.81652        2.71726
H         -2.71170       -0.58661        2.27714
H         -0.46421       -2.25525       -3.16446
H         -0.76441       -3.39465       -1.77357
H         -2.79738       -2.17537       -1.21288
H         -2.48955       -1.01063       -2.58697
