48
1381.log
C          2.97909        2.80004       -1.03775
C          1.79028        1.87640       -1.26095
P          1.77899        0.31557       -0.27686
C          2.48270        0.83172        1.40190
N          2.64299       -0.22103        2.36740
O          3.12209       -0.28898       -0.98462
C          3.59535       -1.60143       -0.76118
Rh        -0.16406       -0.89290       -0.46583
Cl        -0.26998       -1.46550        1.85663
C         -1.00955        1.72201        2.76382
C         -1.03672        2.15717        1.30631
P         -1.53315        0.85281        0.09329
C         -3.17749        0.38648        0.83328
N         -4.00168       -0.20140       -0.20408
O         -1.99129        1.94265       -1.03028
C         -2.12493        1.66066       -2.40976
C         -0.59482       -3.05310       -0.91232
C         -1.76511       -2.23540       -0.78949
H          2.95272        3.24879       -0.04787
H          2.96371        3.60233       -1.77358
H          3.90982        2.25057       -1.15183
H          0.84818        2.39528       -1.07093
H          1.77265        1.53535       -2.29969
H          1.83175        1.59568        1.83145
H          3.46438        1.27193        1.19046
H          1.74161       -0.64699        2.58208
H          3.24647       -0.95571        2.01304
H          3.98268       -1.97736       -1.71017
H          4.40297       -1.59503       -0.02466
H          2.79614       -2.26601       -0.41361
H          0.61879       -2.19061       -0.74864
H         -0.12233       -0.56541       -1.94379
H         -0.58125        2.51095        3.38026
H         -0.41237        0.82277        2.88827
H         -2.01173        1.51189        3.12892
H         -1.75219        2.97191        1.15380
H         -0.05189        2.52272        1.00536
H         -2.99054       -0.35585        1.61095
H         -3.61763        1.28637        1.29725
H         -4.83368       -0.62905        0.18783
H         -4.29651        0.51301       -0.86021
H         -3.17677        1.53136       -2.67283
H         -1.57415        0.75575       -2.68031
H         -1.71959        2.51208       -2.95971
H         -0.35707       -3.45332       -1.89467
H         -0.39273       -3.75095       -0.10332
H         -2.37439       -2.37493        0.09657
H         -2.35091       -2.04873       -1.68409
