40
139.log
C         -1.73517       -1.46333        3.48488
C         -1.04032       -0.35540        2.70655
P         -1.17807       -0.47039        0.86832
N         -1.05398       -2.13164        0.60128
C         -3.02131       -0.38531        0.73055
Br        -3.54519       -0.57536       -1.12253
Rh        -0.06942        1.08723       -0.36906
Cl         0.35784        2.45989        1.56528
C          2.44602       -1.55540        2.04333
C          2.68819       -0.09220        1.70393
P          2.10505        0.53876        0.06680
N          3.23832        1.78924       -0.00947
C          2.99905       -0.58631       -1.10429
Br         2.02104       -2.23169       -1.29697
C         -0.83486        2.84967       -1.52276
C          0.57426        2.68353       -1.62595
H         -2.81637       -1.35572        3.45371
H         -1.47212       -2.43899        3.08337
H         -1.42698       -1.42362        4.52763
H          0.02408       -0.33298        2.94730
H         -1.43298        0.63023        2.97516
H         -1.40899       -2.36757       -0.32405
H         -0.09585       -2.46841        0.63242
H         -3.48344       -1.20925        1.27426
H         -3.39912        0.57683        1.07791
H         -1.45079        1.68849       -0.60606
H         -0.21442        0.19864       -1.58540
H          1.39405       -1.81663        1.94655
H          2.74483       -1.74247        3.07390
H          3.02540       -2.21828        1.40473
H          2.20240        0.55508        2.44119
H          3.76064        0.12953        1.71816
H          3.01482        2.46473        0.72019
H          3.20863        2.28039       -0.89914
H          4.00286       -0.82236       -0.74986
H          3.04461       -0.13157       -2.09469
H         -1.44564        2.63915       -2.39533
H         -1.20001        3.67146       -0.91357
H          1.18407        3.41775       -1.10506
H          0.97622        2.37870       -2.58994
