40
1392.log
C         -3.58742       -0.32934        0.97715
N         -2.54489       -1.24504        0.53928
C         -1.84777       -1.82830        1.67630
P         -1.53623       -0.65336       -0.67773
C         -2.73124       -0.53422       -2.06074
F         -0.94922       -2.11932       -1.09809
Rh         0.01867        0.98696       -0.46685
Cl        -0.71887        1.38162        1.77896
C          2.43444       -1.82812       -1.61250
N          2.30374       -1.73179       -0.16951
C          1.78651       -2.95189        0.41552
P          1.75771       -0.22167        0.35113
C          2.00303       -0.35119        2.15359
F          3.17006        0.52861        0.03268
C         -0.11724        3.20429       -0.79723
C          1.16549        2.74755       -0.35285
H         -4.31693       -0.89526        1.55878
H         -4.08807        0.10116        0.11246
H         -3.18873        0.47601        1.60080
H         -1.03698       -2.45889        1.31389
H         -2.55377       -2.44773        2.23183
H         -1.44531       -1.06258        2.34602
H         -2.15561       -0.62842       -2.97981
H         -3.23673        0.42707       -2.06686
H         -3.44851       -1.34913       -1.98662
H         -1.03036        2.01273       -0.95495
H          0.47646        0.74398       -1.89413
H          3.13370       -2.63138       -1.84955
H          1.47751       -2.03323       -2.10453
H          2.83435       -0.88920       -1.99224
H          2.54429       -3.73157        0.30407
H          0.87167       -3.29634       -0.07541
H          1.59328       -2.80752        1.47547
H          1.14322       -0.79988        2.64127
H          2.10757        0.66682        2.52565
H          2.91371       -0.91563        2.34422
H         -0.19386        3.58418       -1.81217
H         -0.72120        3.75532       -0.08126
H          1.45138        2.98970        0.66727
H          1.99323        2.79634       -1.05454
