36
1396.log
C          0.84675       -1.62556       -1.56322
P          1.31369       -0.33413       -0.34292
C          2.23793       -1.35779        0.89246
Br         3.13447       -0.15360        2.11696
C          2.74788        0.44351       -1.21956
Br         4.07095       -0.82904       -1.88659
Rh        -0.06028        1.40503        0.33947
Cl        -0.25417        1.67940       -2.03141
C         -3.44594        1.67254        1.06213
P         -2.12235        0.56734        0.45209
C         -2.43802       -0.86656        1.57116
Br        -1.32705       -2.35702        1.05881
C         -2.83518       -0.01513       -1.14581
Br        -4.64661       -0.71062       -1.00009
C          0.82635        3.54616        0.50319
C         -0.63114        3.37050        0.68375
H         -0.21837       -1.57155       -1.77056
H          1.37862       -1.46419       -2.49954
H          1.07660       -2.61475       -1.16793
H          2.99971       -1.98566        0.42585
H          1.55301       -1.96835        1.47980
H          3.28386        1.13054       -0.55949
H          2.36086        0.98598       -2.08513
H          1.26480        2.43811        0.33515
H          0.09625        1.16686        1.82861
H         -3.53816        2.52156        0.38561
H         -3.16016        2.04228        2.04621
H         -4.40143        1.15117        1.12834
H         -3.47563       -1.20530        1.53563
H         -2.15877       -0.59224        2.58933
H         -2.22175       -0.80643       -1.57958
H         -2.85588        0.83050       -1.83543
H          1.36159        3.91306        1.37715
H          1.11204        4.08563       -0.39879
H         -1.24507        3.79676       -0.10872
H         -1.01268        3.62548        1.67091
