46
1400.log
C         -2.38636        0.87152       -2.69341
C         -2.92781        0.13977       -1.47436
P         -1.88668        0.20482        0.04415
C         -3.16418       -0.44830        1.23183
F         -4.29190        0.32801        1.23290
N         -2.03268        1.85183        0.40913
C         -1.62660        2.26921        1.74429
Rh         0.03126       -1.02069        0.30027
Cl         0.26838       -1.23480       -2.06750
C          0.90549        2.43545       -1.68746
C          1.45632        2.29506       -0.27452
P          1.71707        0.51625        0.22114
C          3.01640        0.09988       -1.03337
F          3.98334        1.08072       -1.03378
N          2.76260        0.58946        1.53846
C          2.28577        0.81189        2.89044
C          0.23594       -3.25207        0.46496
C          1.47952       -2.55167        0.55399
H         -1.43164        0.44643       -2.99439
H         -3.08236        0.75759       -3.52255
H         -2.26808        1.93532       -2.49780
H         -3.04031       -0.92307       -1.71102
H         -3.89995        0.55005       -1.18311
H         -3.45813       -1.46149        0.93212
H         -2.77263       -0.47133        2.25404
H         -1.54556        2.38848       -0.30402
H         -2.39591        1.96075        2.45082
H         -1.55114        3.35528        1.77684
H         -0.67080        1.82891        2.05926
H         -0.90156       -2.24666        0.28655
H         -0.12878       -0.89429        1.80417
H          0.15066        1.67308       -1.87537
H          1.69715        2.30538       -2.42075
H          0.46488        3.42008       -1.83908
H          2.42163        2.80397       -0.18205
H          0.77605        2.73950        0.45732
H          2.59300        0.03578       -2.03787
H          3.51157       -0.83768       -0.76563
H          3.59445        1.13901        1.33739
H          2.06002        1.86130        3.10776
H          1.38076        0.22147        3.03231
H          3.04321        0.46662        3.59547
H         -0.14098       -3.73518        1.36221
H          0.05240       -3.81825       -0.44402
H          2.14864       -2.64937       -0.29522
H          1.98877       -2.53737        1.51331
