36
1406.log
C         -2.80947        0.08021        2.85009
C         -2.09691        1.15432        2.04114
P         -1.59548        0.54941        0.36636
Br        -3.57221        0.27227       -0.52472
C         -1.23533        2.22408       -0.37213
Cl        -0.88848        2.10230       -2.11712
Rh        -0.23931       -1.30496        0.26567
Cl        -0.30105       -1.20754       -2.11713
C          3.98058       -1.90680       -0.20306
C          3.35303       -0.95492        0.80709
P          1.75888       -0.21642        0.22701
Br         1.78244        1.55109        1.53411
C          2.25522        0.56421       -1.37278
Cl         3.79348        1.45342       -1.26633
C         -0.73104       -3.49300        0.12399
C          0.66223       -3.22946        0.09985
H         -2.18172       -0.80525        2.94467
H         -3.74708       -0.20667        2.37567
H         -3.03033        0.45104        3.84805
H         -2.74068        2.03129        1.92237
H         -1.17715        1.46349        2.54658
H         -0.37892        2.68433        0.12393
H         -2.11488        2.86452       -0.25887
H         -1.54330       -2.09293        0.29275
H         -0.15796       -1.37968        1.78671
H          4.81951       -2.42533        0.25732
H          3.26807       -2.65221       -0.54768
H          4.35611       -1.36003       -1.06505
H          4.05073       -0.14233        1.03305
H          3.12415       -1.47922        1.74191
H          2.35083       -0.23134       -2.11448
H          1.47692        1.25511       -1.70749
H         -1.15610       -3.96172        1.00609
H         -1.21055       -3.77429       -0.80838
H          1.16090       -3.35000       -0.85759
H          1.25418       -3.52864        0.96084
