48
1417.log
C          1.68138       -3.25971       -0.20035
P          1.29488       -1.46802       -0.28289
C          1.45909       -1.17458       -2.08826
C          2.93438       -0.81122        0.27270
C          3.03031        0.69700        0.08223
O          4.26309        1.21222        0.56443
N          5.36707        1.03081       -0.25123
O          6.36569        1.47785        0.19507
O          5.19252        0.45576       -1.27714
Rh        -0.47554       -0.66632        0.93066
Cl        -0.24186        1.28463       -0.47246
C         -1.94294       -1.88114       -2.07729
P         -2.23543       -1.39900       -0.33083
C         -3.09555       -2.90049        0.27440
C         -3.73650       -0.33303       -0.57622
C         -3.44991        1.03574       -1.18042
O         -3.15081        1.91980       -0.12182
N         -2.42676        3.07340       -0.45711
O         -2.10377        3.69905        0.48980
O         -2.32236        3.31549       -1.61004
C         -0.50313        0.64925        2.75359
C         -1.80195        0.27894        2.29624
H          0.82546       -3.82587       -0.56392
H          2.55731       -3.49352       -0.80339
H          1.86041       -3.53736        0.83611
H          1.07815       -0.18418       -2.32943
H          0.88551       -1.91924       -2.63538
H          2.50813       -1.24465       -2.37506
H          3.06636       -1.05752        1.33063
H          3.71530       -1.31161       -0.30867
H          2.27307        1.22564        0.66378
H          2.90970        0.96234       -0.97257
H          0.56239       -0.09416        1.90175
H         -0.53176       -1.92259        1.76949
H         -2.87898       -2.16760       -2.55571
H         -1.25427       -2.72446       -2.09343
H         -1.49556       -1.04827       -2.61594
H         -2.37662       -3.71511        0.33245
H         -3.48065       -2.71294        1.27440
H         -3.91308       -3.17894       -0.38861
H         -4.42036       -0.88120       -1.22925
H         -4.22062       -0.19006        0.39246
H         -2.59412        1.00518       -1.86512
H         -4.32364        1.41305       -1.72746
H         -0.16342        0.25680        3.70770
H         -0.18520        1.67043        2.56089
H         -2.39675        1.05623        1.83123
H         -2.37560       -0.40497        2.91713
