36
1423.log
C          1.59238        1.75124        1.70136
P          1.74478        0.65914        0.23678
C          3.06637       -0.37287        0.81130
N          3.94116       -1.04829        1.11447
C          2.77306        1.71956       -0.92768
N          3.19629        1.04162       -2.12093
Rh         0.02211       -0.60744       -0.52662
Cl         0.13618       -1.28897        1.78440
C         -1.49712        2.60472       -0.80624
P         -1.63731        0.89308       -0.15302
C         -3.16706        0.46402       -0.93839
N         -4.16232        0.15909       -1.41882
C         -2.35024        1.19461        1.57263
N         -2.79300        0.03774        2.27798
C         -0.06359       -2.77226       -1.12736
C         -1.34579       -2.15188       -1.00758
H          1.14636        1.18039        2.51573
H          0.95401        2.60181        1.46024
H          2.58066        2.10488        1.99726
H          2.15529        2.57983       -1.21195
H          3.65329        2.08532       -0.38723
H          3.80909        0.26225       -1.90172
H          2.39557        0.68128       -2.63380
H          1.02441       -1.73029       -0.86266
H          0.07980       -0.14114       -1.97417
H         -1.32751        2.55528       -1.88132
H         -2.40840        3.16703       -0.60413
H         -0.64642        3.10238       -0.34098
H         -3.18377        1.89832        1.44964
H         -1.55838        1.68261        2.15273
H         -2.01720       -0.59857        2.45387
H         -3.52140       -0.45902        1.77625
H          0.26907       -3.05860       -2.12089
H          0.22579       -3.47618       -0.35141
H         -1.95360       -2.43235       -0.15025
H         -1.92199       -1.99529       -1.91558
