46
1438.log
C          4.52088        1.21810       -1.35708
O          3.72544        0.38921       -0.51708
C          3.78963       -0.93542       -0.67433
O          4.48395       -1.50338       -1.46757
C          2.85780       -1.59188        0.31786
P          1.51794       -0.41752        0.77982
C          0.91268       -1.21155        2.32951
N          2.53946        0.76740        1.75145
O          2.12837        1.89991        1.79425
O          3.49199        0.33305        2.35528
Rh         0.19700        0.45758       -0.82075
Cl        -0.22342       -1.90735       -0.53604
C         -3.34467       -3.41629        0.01976
O         -2.96007       -2.43326        0.97699
C         -2.98836       -1.17599        0.58430
O         -3.42539       -0.79070       -0.47952
C         -2.44559       -0.21969        1.60790
P         -1.49571        1.07231        0.64856
C         -1.07129        2.23670        1.99910
N         -4.08582        1.36908        0.02147
O         -2.72834        1.90552        0.00566
O         -4.74186        1.84082       -0.82325
C         -0.28782        0.44400       -3.04252
C         -1.39779        0.87477       -2.35562
H          3.88165        2.02829       -1.70416
H          5.35127        1.61747       -0.77359
H          4.90027        0.63411       -2.19700
H          2.43337       -2.50430       -0.10484
H          3.43180       -1.84325        1.21610
H          1.77755       -1.52841        2.91446
H          0.33234       -0.49681        2.91337
H          0.29772       -2.07393        2.08200
H          1.39158        0.16054       -1.67666
H          0.67012        1.88426       -0.86626
H         -4.24839       -3.10288       -0.50497
H         -2.53181       -3.54621       -0.69756
H         -3.51412       -4.33469        0.57506
H         -1.83878       -0.74245        2.34161
H         -3.27606        0.29489        2.09723
H         -0.82459        3.18728        1.53035
H         -1.91719        2.36969        2.67143
H         -0.19408        1.90232        2.54341
H          0.33075        1.15349       -3.58125
H         -0.22298       -0.58552       -3.38227
H         -2.21742        0.18879       -2.16844
H         -1.65429        1.92827       -2.34927
