44
1452.log
C          3.31070       -2.08137       -0.85152
P          2.32301       -0.77741       -0.02880
C          2.88168       -0.96091        1.70272
C          3.44662        0.67563       -0.53452
C          2.85405        1.85572        0.07639
O          2.85444        2.21097        1.21521
N          2.02436        2.71494       -0.90575
O          1.27475        3.50249       -0.39559
O          2.21853        2.54756       -2.08505
Rh         0.11463       -0.72946       -0.58384
Cl         0.38040       -2.86625        0.47816
C         -0.33516        1.84328        1.86695
P         -0.77948        0.15515        1.33138
C         -0.58619       -0.78257        2.89349
C         -2.65243        0.29095        1.42238
C         -3.19373        1.10050        0.32326
O         -2.86799        2.16089       -0.09105
N         -4.42088        0.43737       -0.38633
O         -4.79444       -0.63422        0.03155
O         -4.90534        1.07450       -1.28134
C         -0.87891       -1.72528       -2.33489
C         -1.79372       -1.21005       -1.37579
H          2.86994       -3.04438       -0.60001
H          4.34497       -2.05060       -0.51100
H          3.27247       -1.94388       -1.93160
H          2.62358       -0.07312        2.27859
H          2.38290       -1.83304        2.12155
H          3.96064       -1.11149        1.72832
H          4.44109        0.47642       -0.13577
H          3.44701        0.74577       -1.62277
H          0.59994       -1.30433       -1.91484
H          0.06657        0.63160       -1.23956
H         -0.87128        2.10874        2.77725
H          0.73583        1.89715        2.05497
H         -0.57434        2.55383        1.07736
H          0.46033       -0.77384        3.18779
H         -0.88492       -1.81651        2.73018
H         -1.18812       -0.33747        3.68445
H         -3.09829       -0.70695        1.42927
H         -2.87422        0.79516        2.36722
H         -0.83503       -1.24654       -3.30783
H         -0.72384       -2.80027       -2.35994
H         -2.33006       -1.92788       -0.75977
H         -2.38455       -0.35152       -1.68446
