32
1457.log
C          3.70003       -0.83069       -0.83094
P          2.15410       -0.09599       -0.16707
Br         2.28872        1.88591       -1.13098
C          2.77731        0.38811        1.52323
C          1.72151        1.12542        2.14573
N          0.83430        1.72925        2.54173
Rh         0.23506       -1.28899       -0.33376
Cl         0.59156       -1.85430        1.96214
C         -2.00602        0.24475        1.97967
P         -1.35628        0.25812        0.27457
Br        -3.25395        0.05248       -0.82893
C         -1.08997        2.08127       -0.01289
C         -2.25318        2.82630        0.37393
N         -3.19403        3.38658        0.70017
C         -0.09874       -3.48644       -0.74524
C         -1.28716       -2.76175       -0.45617
H          3.56620       -1.03272       -1.89447
H          4.55207       -0.16287       -0.69316
H          3.88147       -1.77396       -0.31432
H          2.96197       -0.53204        2.08473
H          3.68624        0.99458        1.44828
H          1.10947       -2.48591       -0.73350
H          0.05076       -0.92135       -1.80074
H         -2.83031        0.95281        2.08000
H         -1.19707        0.51439        2.65877
H         -2.34490       -0.76266        2.22525
H         -0.24100        2.40687        0.59726
H         -0.86473        2.25153       -1.07205
H          0.04963       -3.84063       -1.76065
H          0.28576       -4.15367        0.02074
H         -1.75468       -2.93598        0.51038
H         -1.99368       -2.59912       -1.26648
