48
1459.log
C          2.33964        2.04642       -2.02749
C          2.49886        1.86204       -0.55620
O          3.08588        2.60266        0.18373
P          1.73293        0.28889        0.16280
C          1.16764        1.21972        2.77578
N          1.48917        0.85655        1.71000
C          3.36370       -0.56812        0.46513
C          3.13932       -1.82446        1.29445
C          4.04441       -0.87924       -0.86242
Rh        -0.03080       -0.83911       -0.72931
Cl        -0.25259       -1.81684        1.45814
C         -2.10329        0.53275        2.81869
C         -2.55809       -0.12307        1.55808
O         -3.41057       -0.96127        1.47176
P         -1.78564        0.45503       -0.07351
C         -3.25281        0.16209       -1.02972
N         -4.19143       -0.02171       -1.66045
C         -1.92402        2.32336       -0.11618
C         -1.93341        2.75230       -1.58188
C         -0.78509        3.00240        0.63120
C         -0.18249       -2.91626       -1.59519
C         -1.43640       -2.24683       -1.47445
H          2.30544        1.07930       -2.52701
H          3.13413        2.67291       -2.42767
H          1.38519        2.54304       -2.20603
H          3.96516        0.15119        1.03816
H          2.55358       -2.55518        0.73800
H          2.60185       -1.59541        2.21332
H          4.09547       -2.27479        1.55531
H          3.36670       -1.42046       -1.52492
H          4.37051        0.03109       -1.36282
H          4.91919       -1.50382       -0.69082
H          0.93185       -1.95186       -1.17998
H          0.07429       -0.18514       -2.09882
H         -2.53143        1.53476        2.86736
H         -2.44920       -0.04511        3.67362
H         -1.01587        0.61455        2.84720
H         -2.88358        2.58364        0.35046
H         -1.06855        2.33751       -2.10062
H         -1.89472        3.83771       -1.65582
H         -2.83094        2.40515       -2.08900
H         -0.88601        4.08411        0.55737
H          0.17309        2.72214        0.19067
H         -0.76422        2.73499        1.68468
H          0.18992       -3.11515       -2.59616
H          0.02869       -3.70789       -0.88136
H         -2.10968       -2.57546       -0.68648
H         -1.94488       -1.94771       -2.38695
