40
1468.log
C          2.23686        2.12767       -1.44847
P          1.10536        1.45900       -0.17276
C          0.15092        2.98493        0.19212
C          2.17745        1.39904        1.33039
C          3.02561        0.15294        1.24245
O          3.47170       -0.22496        0.18167
Rh         0.19828       -0.59112       -0.64109
Cl         1.03723       -1.32477        1.50017
C         -1.93637        0.52103        1.98858
P         -1.80665       -0.46666        0.45162
C         -2.51238       -2.05028        1.05036
C         -3.31769        0.17487       -0.44829
C         -2.95374        1.52616       -0.93781
O         -3.16307        2.55103       -0.34349
C          1.15212       -2.35106       -1.62547
C         -0.17686       -2.61382       -1.20285
H          2.66183        3.07643       -1.12075
H          3.03246        1.40978       -1.63387
H          1.66918        2.27884       -2.36577
H         -0.43059        2.86627        1.10245
H          0.83837        3.82207        0.31303
H         -0.53128        3.19335       -0.62904
H          2.84001        2.27124        1.32770
H          1.56606        1.41350        2.23438
H          3.37245       -0.26288        2.20170
H          1.55062       -0.78988       -1.30096
H         -0.35656       -0.09667       -1.95843
H         -1.03730        0.36016        2.58149
H         -2.80960        0.20842        2.56038
H         -2.03061        1.57634        1.73918
H         -1.78277       -2.50486        1.71974
H         -2.69734       -2.72136        0.21394
H         -3.44166       -1.87116        1.59038
H         -3.52186       -0.50756       -1.27307
H         -4.14966        0.21576        0.25697
H         -2.40471        1.52723       -1.89869
H          1.35331       -2.27955       -2.68978
H          1.96755       -2.77871       -1.04994
H         -0.30132       -3.26202       -0.34041
H         -0.93725       -2.74569       -1.96865
