42
1469.log
C         -2.38936        3.63285        1.10478
C         -1.27912        3.19746        0.16213
O         -1.19076        1.76086        0.10582
C         -2.08249        1.15051       -0.66087
O         -2.91846        1.66715       -1.34573
P         -1.94889       -0.68817       -0.41923
C         -3.17857       -1.24313       -1.65328
Br        -3.26540       -0.68658        1.37638
Rh         0.21519       -1.49268       -0.46794
Cl        -0.08679        0.03516       -2.32088
C          2.13044        3.00278       -2.47845
C          3.14017        2.28576       -1.59726
O          2.50637        1.24532       -0.83586
C          1.83427        1.57155        0.23649
O          1.69870        2.65292        0.73707
P          1.14587       -0.01810        0.94030
C          0.34062        0.55865        2.48659
Br         3.08508       -0.66917        1.74541
C          0.96031       -3.11846       -1.94057
C          1.95910       -2.33142       -1.18472
H         -2.38589        4.71579        1.18536
H         -2.24260        3.20316        2.09343
H         -3.35687        3.31251        0.72503
H         -0.30207        3.53128        0.51421
H         -1.46201        3.56966       -0.85043
H         -2.70335       -1.27109       -2.63392
H         -3.53610       -2.24014       -1.38949
H         -4.01111       -0.53624       -1.67717
H         -0.12204       -2.72293       -1.56517
H          0.18212       -2.47377        0.68901
H          1.57166        2.27802       -3.06621
H          2.64869        3.68195       -3.14881
H          1.43241        3.57261       -1.86903
H          3.89413        1.76947       -2.19380
H          3.62206        2.98180       -0.90346
H          0.02727        1.59237        2.34082
H         -0.53307       -0.05892        2.69578
H          1.02585        0.50682        3.33207
H          0.94552       -4.18356       -1.71643
H          0.94857       -2.93422       -3.01417
H          2.55523       -1.63699       -1.77736
H          2.57074       -2.88869       -0.47634
