44
1475.log
C         -0.94049        4.17570       -1.27598
C         -1.09867        2.66840       -1.12120
C         -1.49010        2.30690        0.30338
P         -1.72410        0.50357        0.62691
Cl        -3.58286        0.27057       -0.05100
O         -1.99666        0.75252        2.20964
C         -2.39115       -0.31222        3.05557
Rh        -0.38375       -1.23240       -0.02199
Cl        -0.93252       -0.38281       -2.16695
C          4.19547        2.04306        0.58751
C          3.17750        1.65535        1.65127
C          1.78869        1.36035        1.08834
P          1.61860       -0.14424       -0.00637
Cl         2.29672        0.50587       -1.72476
O          2.94041       -1.00934        0.36553
C          3.00224       -1.95929        1.41242
C         -0.88637       -3.26664       -0.82525
C          0.49757       -2.92640       -0.93324
H         -0.65685        4.42099       -2.29595
H         -0.17114        4.55421       -0.60490
H         -1.87444        4.68467       -1.04687
H         -1.86074        2.30510       -1.81298
H         -0.16251        2.17163       -1.38691
H         -0.74230        2.65706        1.01772
H         -2.44620        2.77052        0.56794
H         -3.42433       -0.60181        2.85086
H         -1.73999       -1.18097        2.91631
H         -2.30720        0.05330        4.07831
H         -1.63095       -2.12760       -0.08278
H         -0.11750       -1.75019        1.38937
H          3.82095        2.86286       -0.02111
H          4.41255        1.20112       -0.06266
H          5.12305        2.36028        1.05932
H          3.07427        2.47824        2.36529
H          3.54539        0.79101        2.20604
H          1.44100        2.21283        0.50139
H          1.08308        1.20527        1.91085
H          3.45791       -1.51326        2.29899
H          2.00751       -2.32989        1.67195
H          3.62511       -2.78468        1.06527
H         -1.16148       -4.06598       -0.14264
H         -1.47866       -3.24165       -1.73538
H          0.87042       -2.67733       -1.92354
H          1.20313       -3.49596       -0.33482
