46
1478.log
C         -5.49328        0.88538        0.31007
C         -4.04807        0.44825        0.50803
N         -3.27435        0.76140       -0.68664
P         -1.58157        0.78877       -0.58423
C         -1.29120        1.20265       -2.34167
C         -1.40950        2.47363        0.16912
Cl         0.31868        2.82677        0.16605
Rh        -0.51556       -0.92487        0.48135
Cl        -0.50405       -2.02728       -1.64495
C          2.83691        2.01000        2.91255
C          2.50572        0.61534        2.39755
N          2.56244        0.59561        0.94811
P          1.67456       -0.45974        0.01041
C          2.73205       -1.95911       -0.19111
C          1.99253        0.30477       -1.64368
Cl         3.72101        0.53321       -1.96553
C         -1.37377       -2.76453        1.44039
C          0.05131       -2.72242        1.46251
H         -5.94548        0.33610       -0.51259
H         -6.06884        0.69706        1.21212
H         -5.53403        1.94671        0.08053
H         -3.60253        0.99214        1.34534
H         -4.01867       -0.62430        0.75113
H         -3.54958        0.14553       -1.44977
H         -2.15457        1.76170       -2.70206
H         -1.17546        0.27807       -2.90522
H         -0.39114        1.80174       -2.45153
H         -1.74753        2.49378        1.20469
H         -1.93152        3.22890       -0.42036
H         -1.91750       -1.45893        0.78656
H         -0.52944       -0.17856        1.79898
H          2.73968        2.04380        3.99441
H          3.85617        2.28177        2.64582
H          2.16050        2.73712        2.47222
H          1.48521        0.34244        2.68104
H          3.19379       -0.11550        2.84545
H          3.49296        0.78491        0.58687
H          2.26844       -2.63787       -0.90357
H          3.71705       -1.66216       -0.55116
H          2.83519       -2.45711        0.77236
H          1.53998        1.29427       -1.68335
H          1.58586       -0.34201       -2.42244
H         -1.90457       -2.66175        2.38282
H         -1.84057       -3.46052        0.74878
H          0.56463       -3.40803        0.79609
H          0.53861       -2.59411        2.42564
