48
1485.log
C          3.20877        2.49742        0.32843
C          2.01703        2.01431       -0.49009
C          2.20414        2.20401       -1.99385
P          1.69029        0.21565       -0.20380
C          1.71440       -0.19176        1.60541
O          2.36408        0.14007        2.53175
O          0.05564        1.32478        1.72088
C          3.37742       -0.51811       -0.54218
O          4.15756       -0.16043       -1.37517
O          3.57113       -1.54475        0.27766
Rh         0.01539       -1.24829       -0.68962
Cl         0.60568       -1.60298        1.69480
C         -3.53064        0.21737       -2.16392
C         -2.63901        1.20516       -1.41778
C         -1.73065        1.93762       -2.40061
P         -1.61933        0.38380       -0.10086
C         -1.21595        1.84213        1.15492
O         -2.12728        2.00585        1.98506
O         -0.85542        2.95675        0.37291
C         -2.95783       -0.19083        1.04424
O         -4.13604       -0.04053        0.89665
O         -2.40009       -0.78956        2.09358
C         -0.69111       -3.30515       -1.06178
C         -1.76191       -2.54536       -0.60996
H          4.13254        2.03189       -0.01000
H          3.30964        3.57442        0.20941
H          3.06905        2.28134        1.38565
H          1.10678        2.52943       -0.16938
H          2.22569        3.26558       -2.22964
H          3.13569        1.75361       -2.32882
H          1.37862        1.74628       -2.53865
H          0.07816        1.60902        2.64660
H          4.41935       -1.99399        0.10917
H          1.17159       -2.12010       -1.14947
H         -0.16339       -0.91832       -2.13420
H         -4.15025        0.75811       -2.87758
H         -4.18790       -0.31084       -1.47791
H         -2.92365       -0.49755       -2.71875
H         -3.26710        1.92211       -0.87231
H         -2.32974        2.48052       -3.12926
H         -1.08748        2.64267       -1.88145
H         -1.10685        1.22004       -2.93396
H         -1.37887        3.69610        0.70876
H         -3.04397       -0.90652        2.81250
H         -0.62558       -3.57409       -2.11030
H         -0.19527       -3.99260       -0.38273
H         -2.08404       -2.65463        0.42082
H         -2.54124       -2.24870       -1.30095
