48
1489.log
C         -5.92557       -0.25270        0.33839
O         -4.91340       -1.22221        0.24162
C         -3.60488       -0.72854        0.37814
C         -3.08645       -0.03532       -0.88687
P         -1.48887        0.85445       -0.62227
C         -1.26210        1.58515       -2.28716
C         -2.13185        2.35007        0.24503
O         -2.12413        3.45332       -0.22376
Rh         0.14188       -0.13505        0.61908
Cl        -0.53446       -2.26306       -0.28552
C          3.08458        2.79980        1.14962
O          3.34083        1.41945        1.24444
C          4.09779        0.89135        0.18653
C          3.31258        0.70965       -1.11598
P          1.83328       -0.37559       -0.89940
C          1.40549       -0.66067       -2.66685
C          2.67709       -2.00797       -0.68957
O          3.86328       -2.14430       -0.57968
C          0.06992       -0.95597        2.70420
C          1.34704       -1.09460        2.07351
H         -5.83790        0.31942        1.27099
H         -6.86860       -0.79560        0.33621
H         -5.91792        0.44767       -0.50497
H         -3.55182       -0.04046        1.23862
H         -2.98276       -1.60456        0.58089
H         -2.90938       -0.78810       -1.66000
H         -3.81532        0.69065       -1.26184
H         -2.10244        2.24469       -2.50587
H         -1.20253        0.79395       -3.03235
H         -0.34193        2.16851       -2.29141
H         -2.49349        2.16459        1.27860
H         -0.87388       -0.23757        1.77398
H          0.57433        1.22110        1.12234
H          4.01691        3.36359        1.02009
H          2.40312        3.03841        0.32620
H          2.61453        3.08838        2.08764
H          4.97714        1.52732       -0.00617
H          4.44356       -0.08474        0.53547
H          3.96692        0.24428       -1.85835
H          2.97310        1.67460       -1.50132
H          2.24196       -1.13387       -3.18139
H          0.53408       -1.31202       -2.70886
H          1.17994        0.29166       -3.14315
H          1.98175       -2.86723       -0.72162
H         -0.00423       -0.26212        3.53709
H         -0.51495       -1.86264        2.83995
H          1.64568       -2.09931        1.78535
H          2.16478       -0.47580        2.42952
