38
1498.log
C         -3.40770        1.63233       -2.08004
O         -2.40036        1.49822       -1.07954
C         -2.72531        0.83887        0.01903
O         -3.80856        0.42091        0.31130
P         -1.21119        0.70043        1.10660
C         -2.04325        0.75783        2.73003
O         -0.64156        2.17959        1.01075
Rh         0.01453       -1.14550        0.61212
Cl        -1.33615       -1.37886       -1.38488
C          4.55342        1.79659        0.76184
O          3.65815        0.94352        0.04647
C          2.40985        1.34547       -0.06492
O          1.97646        2.38581        0.38090
P          1.33684        0.05967       -0.85535
C          2.52289       -0.58826       -2.10296
O          0.46144        1.03718       -1.75670
C          0.35181       -3.35815        0.75561
C          1.31731       -2.82565       -0.07247
H         -4.35546        1.92179       -1.62379
H         -3.53171        0.67694       -2.59393
H         -3.05792        2.39676       -2.76908
H         -2.49519        1.74197        2.84921
H         -1.31689        0.58105        3.52004
H         -2.81011       -0.01324        2.75346
H          0.27865        2.31712        0.69346
H         -1.02272       -1.77363        1.50823
H          0.86711       -0.92832        1.84442
H          5.51572        1.29206        0.76696
H          4.19023        1.94855        1.77954
H          4.62725        2.76420        0.26297
H          2.90904        0.25566       -2.67358
H          3.33793       -1.13064       -1.63370
H          1.97446       -1.24951       -2.77314
H         -0.41050        0.61674       -1.90790
H          0.59625       -3.63835        1.77404
H         -0.50339       -3.86839        0.32460
H          1.21271       -2.94721       -1.14517
H          2.33157       -2.69326        0.28985
