50
1502.log
C          3.57871       -1.39585        0.59226
O          3.27429       -0.15680       -0.03059
P          1.79241        0.50580        0.04914
C          1.78340        1.14283        1.77535
C          2.23555        1.99511       -0.96537
C          1.01276        2.88061       -1.15180
C          3.41109        2.78258       -0.40068
Rh         0.07585       -0.85477       -0.64812
Cl         0.24582       -2.06655        1.43561
C         -1.30597        0.52694        2.94600
O         -1.46293        1.12181        1.66187
P         -1.70081        0.23704        0.31698
C         -3.06141       -0.88342        0.85287
C         -2.61251        1.57190       -0.60810
C         -2.98355        1.08736       -2.00188
C         -3.83486        2.09527        0.13566
C          0.14448       -2.79964       -1.74555
C         -1.18078       -2.37855       -1.40997
H          2.69919       -2.03899        0.67118
H          3.97635       -1.22559        1.59504
H          4.33673       -1.88783       -0.01882
H          2.75929        1.56419        2.00876
H          1.57969        0.30393        2.43881
H          1.00173        1.88678        1.89134
H          2.52431        1.57507       -1.93644
H          1.24885        3.72717       -1.79457
H          0.66500        3.26246       -0.19320
H          0.20788        2.30913       -1.60943
H          4.23991        2.11996       -0.16618
H          3.12115        3.32433        0.49665
H          3.75197        3.50969       -1.13621
H          1.16783       -1.71947       -1.29272
H         -0.03347       -0.09155       -1.94501
H         -0.72528       -0.39520        2.89441
H         -0.78826        1.25454        3.57150
H         -2.28217        0.31160        3.38579
H         -3.76792       -0.34028        1.47749
H         -3.56546       -1.29008       -0.01923
H         -2.62308       -1.70172        1.42267
H         -1.88459        2.38636       -0.69211
H         -3.37593        1.90887       -2.59878
H         -3.74524        0.31159       -1.94833
H         -2.11045        0.67829       -2.50716
H         -4.20173        2.99679       -0.35273
H         -4.63898        1.36300        0.13221
H         -3.58388        2.34449        1.16360
H          0.42796       -2.80329       -2.79403
H          0.55934       -3.63198       -1.18309
H         -1.68362       -2.94109       -0.62897
H         -1.83587       -2.08854       -2.22721
