36
1503.log
C         -2.54754        0.68465        2.46203
P         -1.90195        0.23736        0.79694
Br        -3.87240        0.22383       -0.22444
C         -1.64319       -1.59339        1.08725
C         -2.13102       -2.51451       -0.01133
Br        -1.55502       -1.92560       -1.77442
Rh        -0.19331        1.70131        0.14880
Cl         0.71078        1.01336        2.26266
C          1.19206        0.48627       -2.82354
P          1.36327        0.55049       -1.00337
Br         3.39297        1.39789       -0.90051
C          1.83082       -1.21002       -0.64861
C          2.41282       -1.41471        0.73582
Br         2.30672       -3.30631        1.23217
C         -0.27521        3.90297        0.95859
C          0.90914        3.45032        0.19354
H         -3.36897        0.02616        2.74874
H         -1.73797        0.60709        3.18586
H         -2.90961        1.71477        2.44595
H         -2.14358       -1.87338        2.01994
H         -0.56694       -1.71442        1.24416
H         -3.21979       -2.54733       -0.05933
H         -1.73839       -3.52313        0.12009
H         -1.01503        2.96554        0.96713
H         -0.82797        2.10727       -1.16554
H          0.26634       -0.02794       -3.07436
H          1.13734        1.50712       -3.20108
H          2.03824       -0.02679       -3.28020
H          0.92038       -1.79929       -0.77227
H          2.54008       -1.53438       -1.41863
H          1.86010       -0.86793        1.50262
H          3.46589       -1.13870        0.78408
H         -0.84762        4.70350        0.49307
H         -0.08312        4.10977        2.01073
H          1.82938        3.36207        0.77120
H          1.08029        3.95325       -0.75780
