46
1504.log
C         -0.97948        3.18082       -0.25643
P         -0.83614        1.56064        0.58808
C          0.11427        2.02500        2.08186
C         -2.54073        1.47437        1.34938
O         -3.43333        1.05196        0.32263
C         -3.85217       -0.20841        0.36084
O         -3.60760       -1.00754        1.22336
C         -4.68931       -0.51588       -0.88057
O         -5.83478       -0.84796       -0.86794
Rh        -0.06807       -0.15525       -0.78612
Cl         1.90525        1.26424       -0.92013
C          0.96079       -3.30851        0.20279
P          0.54734       -1.63778        0.81313
C         -0.63131       -1.99481        2.16692
C          2.08639       -1.28158        1.78545
O          3.04859       -0.93330        0.81058
C          3.47468        0.34252        0.81691
O          3.30989        1.10178        1.74459
C          4.23736        0.67021       -0.44750
O          4.59941       -0.14388       -1.25936
C         -0.01169       -0.05664       -3.09924
C          0.61319       -1.21751       -2.42179
H         -0.01639        3.41453       -0.70869
H         -1.24875        3.96248        0.45334
H         -1.73649        3.11735       -1.03833
H          1.16781        2.12333        1.81986
H         -0.25076        2.96919        2.48415
H          0.01777        1.24502        2.83589
H         -2.87674        2.45706        1.69145
H         -2.56514        0.75519        2.17477
H         -4.10245       -0.41921       -1.81492
H         -0.46994        0.63450       -2.21617
H         -1.36307       -0.92931       -0.80898
H          1.17412       -3.97357        1.03920
H          1.83452       -3.23338       -0.44297
H          0.12037       -3.69350       -0.37098
H         -1.60006       -2.25595        1.74696
H         -0.75676       -1.10812        2.78536
H         -0.25845       -2.81434        2.77944
H          2.42852       -2.17562        2.31792
H          1.95797       -0.45175        2.49153
H          4.51633        1.73749       -0.49541
H         -0.86344       -0.29566       -3.73444
H          0.68902        0.60384       -3.60778
H          1.69948       -1.26125       -2.48678
H          0.15887       -2.18309       -2.63777
