44
1507.log
C          0.87391        2.79581        0.61186
P          0.98425        0.97887        0.93447
C          2.10843        0.85746        2.38487
C          2.97737        1.21910       -0.44640
C          2.38689        1.30743       -1.74776
O          1.78445        2.26489       -2.20639
N          3.65336        0.06184       -0.13421
O          3.23037       -1.01341       -0.58306
O          4.59544        0.10915        0.65538
Rh         0.28080       -1.01805       -0.25698
Cl        -1.39523       -1.31672        1.62101
C         -1.40580        1.34327       -2.36346
P         -1.47316        0.03922       -1.10192
C         -2.87851       -0.98397       -1.66976
C         -2.17932        0.99449        0.38577
C         -1.60352        0.50129        1.71556
O         -0.42828        1.04870        2.03316
N         -3.62251        0.90196        0.31171
O         -4.15772        1.58037       -0.53781
O         -4.18684        0.12971        1.04967
C          1.18509       -3.14107        0.04045
C          0.02618       -2.96309       -0.87246
H          0.95590        3.00065       -0.45277
H         -0.06080        3.19262        0.99935
H          1.69672        3.29040        1.12136
H          1.52743        0.51915        3.23969
H          2.53956        1.83078        2.60769
H          2.91897        0.15518        2.21014
H          3.42515        2.10719       -0.01905
H          2.49725        0.38737       -2.35390
H          1.45436       -2.05560        0.43954
H          0.98435       -0.81578       -1.54007
H         -2.33076        1.92134       -2.36747
H         -0.54063        1.98553       -2.19796
H         -1.27817        0.85244       -3.32793
H         -3.22768       -1.64372       -0.87589
H         -3.69931       -0.36572       -2.03364
H         -2.50081       -1.59615       -2.48887
H         -1.88692        2.04011        0.23585
H         -2.32417        0.64534        2.53258
H          2.10260       -3.45727       -0.44952
H          0.98523       -3.73472        0.93210
H         -0.90404       -3.42503       -0.53778
H          0.22288       -3.19520       -1.91697
