44
152.log
C         -4.47144       -0.53912        1.55129
C         -3.61627       -0.03310        0.42613
O         -3.63449       -0.50767       -0.68620
C         -2.68215        1.09068        0.76171
P         -1.19366        0.99416       -0.40355
C         -1.95663        1.84894       -1.81696
N         -0.42279        2.30676        0.55793
O          0.46300        1.96830        1.32125
O         -0.84471        3.42794        0.44852
Rh        -0.29382       -1.11217       -0.20053
Cl         1.26092       -0.85200       -2.05553
C          2.65423        1.51548       -2.69585
C          1.76747        1.13517       -1.52598
O          0.64424        1.70263       -1.43823
C          2.54448        0.83908       -0.23964
P          1.62264       -0.39112        0.77361
C          2.94778       -1.64863        0.99782
N          1.79664        0.20949        2.46745
O          2.77501        0.86548        2.71631
O          0.96369       -0.17802        3.24449
C         -0.98596       -3.09325       -0.89522
C          0.19535       -3.16141       -0.09701
H         -5.22641       -1.22618        1.17859
H         -4.94193        0.28903        2.07533
H         -3.83059       -1.06346        2.25898
H         -3.18829        2.04867        0.60310
H         -2.36995        1.03381        1.80809
H         -2.97400        1.48576       -1.93386
H         -1.94092        2.91807       -1.60150
H         -1.38437        1.65183       -2.71813
H         -1.47565       -1.57224       -1.04361
H         -1.07298       -1.27900        1.06678
H          3.44576        0.78938       -2.85314
H          2.05349        1.60481       -3.59679
H          3.09513        2.48699       -2.47542
H          2.64504        1.76860        0.32803
H          3.53484        0.44710       -0.47473
H          3.84189       -1.16686        1.39787
H          2.60742       -2.42329        1.68442
H          3.17446       -2.10129        0.03397
H         -1.91267       -3.46853       -0.47385
H         -0.88993       -3.28344       -1.96075
H          1.12033       -3.42185       -0.60473
H          0.10879       -3.59784        0.89392
