44
1526.log
C          2.61820       -3.42417        0.37454
C          2.23456       -1.97916        0.66512
C          2.79283       -1.01737       -0.33432
O          3.70378       -1.23991       -1.08468
P          1.97812        0.68413       -0.43839
C          2.24096        1.02795       -2.22405
C          2.51954        0.85084        1.99331
O          2.66139        1.78630        2.61834
Rh        -0.12358        1.09419        0.35948
Cl        -0.95752        1.75202       -1.83479
C         -1.95342       -1.87792        2.63992
C         -2.80504       -1.88188        1.36847
C         -1.93690       -2.23971        0.20525
O         -1.80446       -3.33847       -0.26657
P         -1.06813       -0.77511       -0.57584
C         -0.22167       -1.59928       -1.96863
C         -2.58223       -0.17791       -1.49102
O         -3.57431        0.23349       -0.95505
C         -1.05536        2.92753        1.26032
C         -1.93488        1.80286        1.20934
H          2.26321       -4.07482        1.16877
H          2.18015       -3.75520       -0.56399
H          3.69852       -3.51736        0.29787
H          1.14660       -1.84910        0.70434
H          2.62078       -1.67200        1.64043
H          3.23116        0.66991       -2.50996
H          2.17181        2.10859       -2.36200
H          1.47575        0.55797       -2.83708
H          3.11696        1.39740       -0.06373
H          0.34709        2.51019        0.73784
H          0.22902        0.54056        1.71567
H         -1.54006       -2.86755        2.82040
H         -1.13270       -1.16856        2.54295
H         -2.56420       -1.59417        3.49305
H         -3.22356       -0.88566        1.19402
H         -3.61172       -2.61177        1.46152
H         -0.65785       -2.59206       -2.09683
H          0.84771       -1.69614       -1.77997
H         -0.37298       -1.00419       -2.87062
H         -2.51679       -0.33794       -2.58265
H         -0.72268        3.26962        2.23645
H         -1.23216        3.73456        0.55390
H         -2.74474        1.83214        0.48621
H         -2.21098        1.34519        2.15599
