44
1527.log
C         -2.89228       -1.75330        1.10792
P         -1.76121       -0.54812        0.31329
C         -2.32857       -0.78170       -1.43518
C         -1.93964       -2.11873       -1.77815
N         -1.63963       -3.19827       -2.00889
C         -2.56167        1.01016        0.96830
C         -3.79523        1.41000        0.21622
O         -4.67763        0.66064       -0.11439
O         -3.81689        2.71458       -0.04527
Rh         0.44391       -0.93119        0.73587
Cl         1.10345       -0.64906       -1.55406
C          1.17648        2.16659        2.30435
P          1.34631        1.15915        0.77111
C          0.88157        2.43851       -0.50789
C         -0.37116        2.17965       -1.13522
N         -1.38432        1.99977       -1.63750
C          3.19303        1.33187        0.56701
C          3.62263        0.97272       -0.83117
O          3.52127        1.72231       -1.76874
O          4.18425       -0.22809       -0.91623
C          1.48981       -2.92522        0.83755
C          2.33007       -1.83996        1.19237
H         -2.70882       -2.74495        0.69484
H         -3.92678       -1.46364        0.92315
H         -2.69667       -1.77782        2.17906
H         -3.41494       -0.67425       -1.49690
H         -1.82963       -0.06899       -2.09607
H         -2.82768        0.76186        1.99962
H         -1.85555        1.83967        0.97331
H         -4.58889        2.94773       -0.58598
H         -0.01433       -2.37536        0.55054
H          0.09799       -0.96560        2.21532
H          1.67241        3.13320        2.22214
H          0.11905        2.31401        2.51940
H          1.61066        1.60427        3.12923
H          1.64904        2.40764       -1.29188
H          0.86399        3.42979       -0.04372
H          3.43935        2.38195        0.74644
H          3.68702        0.69133        1.29749
H          4.32815       -0.46668       -1.84636
H          1.17913       -3.61864        1.61279
H          1.63021       -3.38150       -0.13770
H          3.10139       -1.56401        0.48369
H          2.62313       -1.74737        2.23555
