40
1545.log
C          4.25615       -0.81601       -0.41105
C          3.51090        0.12201        0.52834
P          1.77317        0.38110       -0.03426
C          2.15361        1.78711       -1.21557
O          2.04942        2.96303       -1.02009
O          2.58107        1.23073       -2.33925
N          1.20567        1.43389        1.31673
O          0.00578        1.57472        1.43920
O          2.04460        1.97461        1.98839
Rh         0.27711       -1.26812       -0.39046
Cl         0.95529       -1.37358        1.93270
C         -3.01382        1.42195        2.11416
C         -2.30300        0.11001        1.81483
P         -1.55210       -0.02619        0.13131
C         -1.77124        1.65558       -0.66223
O         -2.86464        2.08596       -0.90056
O         -0.63189        2.20491       -1.02339
N         -4.08169       -0.01223       -0.50194
O         -2.80773       -0.65029       -0.72229
O         -4.84419       -0.24393       -1.36519
C          0.48546       -3.47632       -0.65204
C         -0.84678       -3.04309       -0.35022
H          5.29470       -0.90463       -0.10069
H          4.22820       -0.45065       -1.43620
H          3.80671       -1.80752       -0.38836
H          4.00134        1.09843        0.59167
H          3.45356       -0.30715        1.53283
H          2.79467        1.88883       -3.02517
H          1.38432       -2.26254       -0.78398
H         -0.01940       -1.06132       -1.85739
H         -3.44696        1.37022        3.11103
H         -2.30409        2.24440        2.09071
H         -3.80716        1.61568        1.39798
H         -1.49425       -0.04946        2.52913
H         -2.99554       -0.73513        1.87804
H         -0.75355        3.07298       -1.45120
H          0.66793       -3.88514       -1.64144
H          1.03108       -3.98801        0.13709
H         -1.22362       -3.25553        0.64782
H         -1.59866       -3.12793       -1.12830
