40
1546.log
C         -4.44642       -0.93194       -1.30251
C         -3.75407       -1.76326       -0.21613
C         -2.30712       -1.37933       -0.22915
O         -1.46849       -1.91705       -0.90729
P         -1.76863        0.09776        0.77540
C         -1.53094       -0.68678        2.40675
F         -3.23284        0.74905        1.08745
Rh        -0.13903        1.19346       -0.32041
Cl         1.14176        1.20727        1.70970
C          3.82390       -2.56315        0.72179
C          3.38235       -1.13227        1.03959
C          2.81863       -0.51005       -0.20227
O          3.46804        0.10982       -1.00636
P          1.00670       -0.75065       -0.59538
C          1.24079       -1.70094       -2.13792
F          0.73453       -1.96375        0.45378
C          0.43367        3.31627       -0.70288
C          1.32440        2.35849       -1.28487
H         -4.03005       -1.16791       -2.27857
H         -5.51095       -1.15056       -1.31048
H         -4.30896        0.13025       -1.11413
H         -4.19776       -1.54011        0.75481
H         -3.85614       -2.82652       -0.43974
H         -0.72486       -1.41186        2.34257
H         -1.24196        0.09529        3.10828
H         -2.45750       -1.16122        2.72728
H         -0.74312        2.58067       -0.04786
H         -0.90516        1.10366       -1.62932
H          4.55210       -2.56333       -0.08658
H          2.97292       -3.17437        0.43038
H          4.28122       -3.00819        1.60183
H          4.24246       -0.54279        1.36244
H          2.62818       -1.13348        1.82623
H          1.84964       -1.08718       -2.79896
H          1.75379       -2.63498       -1.91614
H          0.27922       -1.90342       -2.59816
H         -0.16326        3.92708       -1.37413
H          0.78521        3.85075        0.17570
H          2.30446        2.24950       -0.82976
H          1.34330        2.28070       -2.36874
