32
1550.log
C          0.43918        1.39901        2.12079
P          1.59902        0.79724        0.82618
O          2.91656        0.55097        1.70433
C          2.13557        2.40116        0.09654
Br         0.60436        3.14876       -0.79435
Rh         1.12859       -0.97171       -0.54028
Cl         1.43958       -2.17042        1.57909
C         -2.11750       -2.41417       -0.82573
P         -1.10066       -1.06581       -0.11048
O         -1.42197       -1.18765        1.44374
C         -2.12408        0.39790       -0.56430
Br        -3.89310        0.29685        0.21090
C          2.50805       -2.36299       -1.61353
C          1.12846       -2.74729       -1.66626
H          0.94368        2.18008        2.69167
H         -0.49019        1.77947        1.70686
H          0.21362        0.56571        2.78559
H          2.90651       -0.36575        2.02287
H          2.46803        3.10289        0.86248
H          2.91441        2.25233       -0.65097
H          2.63591       -1.03524       -0.86389
H          0.89955       -0.14979       -1.78557
H         -2.13534       -2.34054       -1.91034
H         -3.12827       -2.35401       -0.42173
H         -1.67999       -3.36982       -0.54044
H         -0.66193       -1.61845        1.88232
H         -1.67320        1.32744       -0.22080
H         -2.23464        0.43693       -1.64767
H          2.97764       -2.03950       -2.53753
H          3.16714       -2.95206       -0.98093
H          0.84090       -3.61507       -1.07737
H          0.63243       -2.69676       -2.63125
