50
1552.log
C          3.07828       -0.60819        1.75517
N          2.41545        0.61192        1.30653
C          1.78490        1.28618        2.43266
P          1.51675        0.43806       -0.11777
C          1.07407        2.17776       -0.48023
C          2.96103        0.27474       -1.33280
N          4.03848        1.16572       -0.95112
O          4.98252        0.68273       -0.37287
O          3.91012        2.33962       -1.21318
Rh         0.05494       -1.30446       -0.45226
Cl        -0.22197       -1.62623        1.90648
C         -3.98649        1.12013       -1.50152
N         -2.61317        0.65509       -1.41267
C         -1.77366        1.30171       -2.40242
P         -1.93601       -0.21770       -0.16850
C         -3.35724       -1.20502        0.42617
C         -1.85365        0.91101        1.40954
N         -2.68428        2.03165        1.12788
O         -2.18552        2.94525        0.49493
O         -3.85086        1.97952        1.45824
C          0.43965       -3.50491       -0.68241
C         -0.94040       -3.15138       -0.78682
H          2.37470       -1.31139        2.21106
H          3.58522       -1.09110        0.92194
H          3.83133       -0.33389        2.49375
H          1.08835        0.63171        2.96596
H          1.26904        2.18327        2.09631
H          2.57250        1.58620        3.12591
H          1.86004        2.84137       -0.12070
H          0.99694        2.27905       -1.56164
H          0.11378        2.46299       -0.05465
H          2.56233        0.55934       -2.30810
H          3.32764       -0.75232       -1.35752
H          1.27880       -2.23102       -0.48096
H          0.17055       -1.10543       -1.94808
H         -4.61012        0.69446       -0.72289
H         -4.39797        0.83337       -2.47291
H         -4.03159        2.20976       -1.42188
H         -2.20205        1.14634       -3.39508
H         -1.69852        2.37698       -2.21874
H         -0.78131        0.85524       -2.37415
H         -3.76595       -1.78416       -0.40022
H         -2.98823       -1.87957        1.19726
H         -4.12804       -0.56987        0.86249
H         -0.82113        1.21830        1.56394
H         -2.22543        0.33568        2.25594
H          0.94517       -3.85294       -1.57847
H          0.75352       -4.01742        0.22278
H         -1.58061       -3.44318        0.03926
H         -1.41322       -3.24034       -1.76068
