50
1556.log
C          4.06012       -1.73357       -0.44039
C          3.39623       -0.64112       -1.27043
P          1.84507       -0.05638       -0.47504
C          2.38224        0.79053        1.06842
C          3.23551        2.00694        0.80053
C          3.44813        2.89306        1.99052
O          3.68239        2.23599       -0.29467
N          1.52329        1.38247       -1.47409
O          0.85154        2.23916       -0.91948
O          1.83157        1.37325       -2.63708
Rh         0.04827       -1.43610       -0.35875
Cl         0.75200       -1.75848        1.90764
C         -1.03240        2.43757        1.84673
C         -1.41113        0.96133        1.91175
P         -1.50852        0.13309        0.26748
C         -2.04318        1.38763       -0.97413
C         -3.40021        1.95701       -0.63735
C         -4.09825        2.63686       -1.77395
O         -3.86605        1.84325        0.46832
N         -3.10463       -0.67534        0.42713
O         -3.70430       -0.84946       -0.61245
O         -3.43049       -1.08078        1.51404
C         -0.13443       -3.67566       -0.54205
C         -1.34532       -3.03132       -0.16593
H          3.32998       -2.47968       -0.12501
H          4.52754       -1.31996        0.45060
H          4.83009       -2.23302       -1.02358
H          3.09992       -1.02947       -2.25037
H          4.06691        0.20703       -1.42351
H          2.94074        0.04543        1.64359
H          1.50758        1.03951        1.67344
H          2.55471        3.50399        2.11824
H          4.29463        3.55357        1.82237
H          3.59254        2.30931        2.89536
H          0.96479       -2.58611       -0.78049
H         -0.33205       -1.23279       -1.81482
H         -0.75831        2.78464        2.84107
H         -1.87843        3.02978        1.50824
H         -0.19689        2.61479        1.17194
H         -2.38296        0.83719        2.39777
H         -0.67527        0.39146        2.48773
H         -1.29925        2.18975       -0.98970
H         -2.04258        0.92154       -1.96281
H         -4.91043        3.25691       -1.40390
H         -3.40335        3.22774       -2.36437
H         -4.51753        1.86070       -2.41384
H         -0.07767       -4.11807       -1.53194
H          0.39656       -4.23306        0.22447
H         -1.67271       -3.14278        0.86523
H         -2.15453       -3.00694       -0.89133
