50
1563.log
C         -3.79562       -2.58650       -1.34342
N         -3.31925       -1.24212       -1.10061
N         -3.05371       -1.00931        0.28926
C         -3.91949        0.07641        0.73705
P         -1.38902       -0.77879        0.64062
C         -0.77993       -2.48250        0.33504
C         -1.48693       -0.78511        2.46847
Rh        -0.28881        0.88805       -0.46928
Cl        -0.20185        2.20399        1.52126
C          4.08586       -2.74396        0.28009
N          3.84347       -1.34826       -0.03744
N          2.54691       -1.12744       -0.55994
C          2.40775       -1.37962       -1.97815
P          1.81384        0.24012        0.16183
C          2.04812       -0.23426        1.91242
C          3.08432        1.57072        0.07529
C         -1.03498        2.70146       -1.54772
C          0.39073        2.56020       -1.57030
H         -3.07711       -3.37918       -1.10124
H         -4.69133       -2.74055       -0.74257
H         -4.06277       -2.66119       -2.39653
H         -2.49355       -1.03032       -1.66394
H         -4.94898       -0.20514        0.51887
H         -3.70229        1.02139        0.22481
H         -3.80355        0.21832        1.80825
H         -1.36816       -3.19867        0.90683
H          0.26756       -2.52363        0.62983
H         -0.83252       -2.71301       -0.72709
H         -1.63866        0.22903        2.83252
H         -2.30468       -1.43633        2.77492
H         -0.54658       -1.15244        2.87193
H         -1.64826        1.51856       -0.82178
H         -0.34098        0.06485       -1.74426
H          4.08366       -3.40761       -0.59334
H          5.05444       -2.81660        0.77234
H          3.31238       -3.07533        0.97061
H          4.55527       -1.01575       -0.69133
H          2.47293       -2.45285       -2.17399
H          3.17700       -0.86674       -2.57066
H          1.42834       -1.02261       -2.28960
H          1.59372        0.53574        2.53194
H          3.11166       -0.31390        2.12573
H          1.56742       -1.19073        2.10425
H          2.73727        2.39869        0.68963
H          4.02873        1.19288        0.46437
H          3.20877        1.91129       -0.95171
H         -1.57298        2.58270       -2.48485
H         -1.44274        3.48363       -0.91280
H          0.95498        3.26227       -0.96413
H          0.85562        2.34206       -2.52911
