48
1564.log
C          4.08523        1.01858       -0.90919
C          3.14188       -0.16987       -0.76654
C          3.87020       -1.49672       -0.93452
O          2.55379       -0.08442        0.53032
P          1.12794       -0.75436        0.87252
C          0.94748        0.08693        2.50107
N          1.58657       -2.32631        1.27531
Rh        -0.63054       -0.81611       -0.57456
Cl        -1.61064       -2.04244        1.26156
C          0.03843        3.26916       -1.51286
C          0.36880        2.74868       -0.12048
C          1.05690        3.81108        0.72856
O         -0.81483        2.37022        0.57206
P         -1.67247        1.05375        0.22119
C         -3.07230        1.73728       -0.76205
N         -2.47079        0.99582        1.69573
C         -1.30454       -2.41703       -1.96592
C         -2.23280       -1.33075       -1.83273
H          4.54407        1.01305       -1.89365
H          4.86410        0.96362       -0.15268
H          3.53840        1.94866       -0.77732
H          2.34153       -0.10336       -1.51926
H          4.65395       -1.58829       -0.18628
H          3.16663       -2.31534       -0.80632
H          4.31408       -1.55492       -1.92463
H          0.20616       -0.45502        3.08540
H          1.91427        0.05752        3.00273
H          0.63350        1.11875        2.37260
H          0.77261       -2.90358        1.45760
H          2.23686       -2.36856        2.05387
H         -0.04492       -2.11998       -1.14811
H          0.02186       -0.03630       -1.69478
H         -0.39411        2.46541       -2.10471
H          0.94079        3.62201       -2.00521
H         -0.67564        4.08644       -1.44493
H          1.01680        1.86455       -0.21287
H          0.39495        4.66409        0.85547
H          1.97287        4.13958        0.24563
H          1.30170        3.41332        1.70973
H         -3.38142        2.66277       -0.28089
H         -2.77534        1.92490       -1.78995
H         -3.89462        1.02699       -0.75532
H         -3.12347        0.21666        1.69388
H         -1.81880        0.83671        2.45756
H         -0.81206       -2.54543       -2.92580
H         -1.57109       -3.35777       -1.49146
H         -3.14724       -1.53706       -1.28141
H         -2.39101       -0.70079       -2.70432
