44
1565.log
C         -1.57358       -2.39657       -1.13196
P         -1.72904       -0.60700       -0.76138
C         -2.74265       -0.09493       -2.19827
C         -2.93072       -0.69417        0.68184
C         -3.08678        0.72591        1.19243
O         -3.18396        1.63646        0.39159
C         -4.22402       -1.18916        0.13305
O         -4.53331       -2.34890        0.05119
Rh         0.01796        0.77777       -0.27838
Cl        -0.84747        0.87411        1.96029
C          1.57746       -2.41261        0.38843
P          1.68832       -0.57938        0.48931
C          2.17736       -0.41778        2.24037
C          3.40934       -0.25357       -0.28223
C          3.24346        0.02353       -1.73857
O          3.36473        1.10217       -2.24412
C          4.27243       -1.43116       -0.00917
O          4.89918       -1.59844        1.00231
C          0.07390        3.02745       -0.34512
C          1.29676        2.46506        0.09156
H         -0.95116       -2.51350       -2.01750
H         -2.56089       -2.81952       -1.31903
H         -1.11848       -2.92575       -0.29900
H         -3.17759        0.88331       -2.00350
H         -2.07150       -0.01888       -3.05410
H         -3.52390       -0.82367       -2.41062
H         -2.52094       -1.39326        1.41768
H         -3.41083        0.82390        2.23840
H         -4.89077       -0.38720       -0.23312
H         -0.99246        1.82916       -0.70533
H          0.49641        0.67045       -1.70781
H          2.44370       -2.88772        0.84565
H          1.46666       -2.73750       -0.64449
H          0.68743       -2.70074        0.94792
H          1.36376       -0.80466        2.85289
H          2.32100        0.63159        2.49189
H          3.09361       -0.97589        2.43454
H          3.77438        0.63428        0.24651
H          3.00325       -0.87562       -2.34070
H          4.28749       -2.18337       -0.82204
H          0.03920        3.48118       -1.33003
H         -0.57145        3.50050        0.38923
H          1.54488        2.56439        1.14508
H          2.14695        2.52233       -0.58120
