50
1570.log
C          4.34079       -1.15335        0.10059
C          3.44947        0.06056       -0.13898
O          2.62722        0.35148        0.97780
P          1.16263       -0.35853        1.22905
C          1.58911       -1.61658        2.49972
C          0.54621        0.96124        2.33862
C          4.30880        1.29977       -0.43794
O          5.09291        1.33563       -1.34076
O          4.10258        2.32317        0.38649
Rh        -0.10050       -1.12701       -0.51219
Cl        -1.64751       -1.37976        1.31438
C         -3.50597        2.90410        1.06585
C         -2.68797        1.63135        0.84251
O         -1.71240        1.92336       -0.13705
P         -0.87052        0.94328       -1.11127
C          0.49602        2.14818       -1.35006
C         -1.66790        1.18411       -2.75317
C         -3.63738        0.49973        0.48873
O         -4.54352        0.15349        1.19340
O         -3.42880        0.01161       -0.73464
C         -0.55119       -3.20342       -1.19257
C         -1.30449       -2.19721       -1.87543
H          3.73438       -2.05583        0.11964
H          5.06760       -1.22370       -0.70366
H          4.86427       -1.05202        1.04873
H          2.81923       -0.12784       -1.02240
H          2.15212       -2.43378        2.05284
H          2.18000       -1.15410        3.28905
H          0.66135       -2.00945        2.90830
H          0.21723        1.82659        1.76678
H          1.34901        1.24837        3.01700
H         -0.28917        0.56048        2.90650
H          3.43907        2.06485        1.05399
H          0.43332       -2.53087       -0.20422
H          0.93937       -0.97282       -1.60196
H         -2.85619        3.70293        1.41230
H         -3.97336        3.21054        0.13306
H         -4.27495        2.70992        1.80751
H         -2.20173        1.34390        1.78286
H          1.10999        1.83153       -2.18872
H          1.11917        2.20044       -0.46053
H          0.07465        3.13152       -1.55032
H         -2.54542        0.55873       -2.87490
H         -0.93631        0.92269       -3.51363
H         -1.94493        2.23225       -2.85058
H         -4.01815       -0.74545       -0.88239
H          0.19833       -3.74919       -1.75856
H         -1.08101       -3.81719       -0.46904
H         -2.36288       -2.14498       -1.64392
H         -1.08330       -2.02803       -2.92548
