46
1572.log
C         -1.70545        2.59887        2.04687
C         -2.67277        1.65418        1.34768
P         -1.85987        0.86896       -0.10571
C         -3.33619        0.09138       -0.94527
Br        -4.27327       -1.11019        0.24548
N         -1.65332        2.27576       -1.02684
C         -1.18754        2.22369       -2.40887
Rh        -0.19948       -0.63091        0.28884
Cl        -0.11336       -0.93883       -2.09896
C          2.75024       -0.02694        2.73683
C          2.64542        1.09686        1.71666
P          1.61984        0.73965        0.20441
C          2.90542        0.25091       -1.04704
Br         4.23099       -0.97377       -0.35744
N          1.30952        2.27174       -0.40963
C          2.19325        3.41622       -0.26336
C         -0.28506       -2.86417        0.49847
C          1.03969       -2.34311        0.52201
H         -2.13723        2.97199        2.97303
H         -0.78395        2.06629        2.28339
H         -1.46123        3.44893        1.41239
H         -3.57973        2.18193        1.03289
H         -2.96023        0.85138        2.03121
H         -2.99608       -0.49578       -1.80114
H         -4.05371        0.85025       -1.26930
H         -2.45315        2.89961       -0.93532
H         -0.42620        1.45065       -2.49512
H         -0.74959        3.18732       -2.67321
H         -1.98943        1.99571       -3.11614
H         -1.31614       -1.67054        0.37354
H         -0.31159       -0.44363        1.78574
H          1.75776       -0.38300        3.00652
H          3.33034       -0.86065        2.35137
H          3.24111        0.33940        3.63684
H          2.14990        1.95408        2.18559
H          3.64385        1.41397        1.39904
H          3.43830        1.13199       -1.40734
H          2.40614       -0.24306       -1.88265
H          0.33124        2.52740       -0.32958
H          2.06750        3.93646        0.69155
H          3.23226        3.10283       -0.34555
H          1.98636        4.12216       -1.06948
H         -0.69395       -3.27407        1.41714
H         -0.60455       -3.38967       -0.39723
H          1.64946       -2.52552       -0.35876
H          1.59077       -2.40632        1.45501
