50
158.log
C          4.49570       -1.94395        0.37197
O          3.46638       -1.44439       -0.44300
C          2.18699       -1.68220        0.09018
P          0.98166       -0.74132       -0.93276
C          1.53905       -1.17403       -2.62627
C          1.70130        0.96528       -0.91361
O          1.40798        1.77187       -1.76185
O          2.52011        1.17401        0.08900
C          3.01359        2.50290        0.24767
Rh        -1.25070       -1.05280       -0.50425
Cl        -0.66009       -2.26092        1.47464
C          1.51692        0.51953        3.10355
O          0.67671        0.68179        1.98797
C         -0.66583        0.87930        2.34097
P         -1.53248        0.83053        0.71995
C         -3.20493        1.42203        1.20434
C         -0.89539        2.42926        0.02396
O         -0.17947        3.21600        0.58474
O         -1.42162        2.56196       -1.17316
C         -1.03402        3.69400       -1.95149
C         -2.59553       -2.75749       -1.00492
C         -3.23357       -1.70776       -0.26163
H          5.43370       -1.71228       -0.12996
H          4.48295       -1.47155        1.36163
H          4.40746       -3.02968        0.50040
H          1.92054       -2.75079        0.05149
H          2.10147       -1.34886        1.13115
H          1.04486       -0.49702       -3.32158
H          1.24606       -2.19941       -2.84897
H          2.61980       -1.06881       -2.70141
H          2.19494        3.15554        0.55758
H          3.78152        2.45803        1.01563
H          3.42978        2.86534       -0.69431
H         -1.16038       -2.37832       -1.27974
H         -1.62317       -0.31335       -1.77560
H          1.44842        1.38536        3.77406
H          2.53320        0.43865        2.72255
H          1.25397       -0.38767        3.66140
H         -0.80924        1.85271        2.84135
H         -1.03682        0.06925        2.98708
H         -3.68170        0.65190        1.80963
H         -3.79589        1.58544        0.30522
H         -3.13063        2.34771        1.77535
H         -0.02806        3.52550       -2.33810
H         -1.75089        3.76738       -2.76511
H         -1.04661        4.59560       -1.33618
H         -2.90835       -2.90671       -2.03485
H         -2.39839       -3.68399       -0.47211
H         -3.47743       -1.92630        0.77491
H         -3.99185       -1.12156       -0.77486
