44
1580.log
C          1.58848       -3.27745        0.86761
P          1.68227       -1.58355        0.16754
C          1.84047       -1.97184       -1.61659
C          3.47710       -1.24649        0.56678
C          3.81733        0.16414        0.21818
O          3.81053        1.09853        0.95797
O          4.19786        0.23832       -1.10476
C          4.45095        1.36410       -1.66845
N          4.71600        2.32060       -2.23145
Rh         0.32399        0.07393        0.94626
Cl         1.21061        1.23938       -0.96734
C         -2.23911        1.23171       -1.16221
P         -1.56511       -0.23240       -0.29443
C         -1.61957       -1.45291       -1.65497
C         -3.04738       -0.80727        0.71819
C         -4.28075       -0.65348       -0.07328
O         -4.68681       -1.34939       -0.95385
O         -4.93564        0.51729        0.30539
C         -5.99395        0.92218       -0.29467
N         -6.93158        1.33898       -0.79493
C          0.79913        1.82729        2.26473
C         -0.51222        1.87450        1.71929
H          2.37862       -3.91259        0.46986
H          0.61908       -3.70415        0.61666
H          1.66674       -3.22213        1.95131
H          0.97444       -2.54492       -1.93972
H          2.74248       -2.55890       -1.78852
H          1.88768       -1.04443       -2.18450
H          4.10583       -1.94518        0.01193
H          3.59948       -1.37840        1.64443
H          1.50346        0.45648        1.83244
H         -0.21333       -0.74215        2.10513
H         -1.41010        1.69908       -1.69457
H         -2.64396        1.94779       -0.44783
H         -3.00753        0.94049       -1.87840
H         -0.94361       -1.10780       -2.43639
H         -1.29147       -2.42534       -1.28946
H         -2.62946       -1.53788       -2.05586
H         -2.86304       -1.85609        0.95158
H         -3.08041       -0.21494        1.63175
H          0.90817        1.65897        3.33155
H          1.55498        2.48246        1.84155
H         -0.68817        2.59954        0.92972
H         -1.34904        1.75109        2.40239
