36
1581.log
C         -3.54381       -0.71933        2.14670
C         -2.83131        0.60555        1.92689
P         -1.82311        0.57749        0.36782
Cl        -3.25446        0.59847       -0.97832
C         -1.41449        2.40198        0.35289
Cl        -0.86115        2.87994       -1.26918
Rh        -0.37845       -1.16990        0.05988
Cl        -0.18844       -0.44937       -2.20815
C          1.28654        1.30226        2.69203
C          2.20956        0.25771        2.08887
P          1.69001       -0.25918        0.39267
Cl         3.23684       -1.38949       -0.06402
C          2.09607        1.23120       -0.63064
Cl         3.69987        1.88271       -0.25227
C         -0.87011       -3.24324       -0.68903
C          0.51461       -3.02669       -0.47014
H         -4.20887       -0.93525        1.31262
H         -2.81834       -1.52683        2.23105
H         -4.13365       -0.68639        3.05993
H         -2.15794        0.81439        2.76007
H         -3.55789        1.41876        1.84937
H         -0.63253        2.64007        1.07230
H         -2.31797        2.97605        0.57145
H         -1.67304       -1.92518       -0.23975
H         -0.45810       -1.60215        1.51614
H          1.52530        1.45736        3.74204
H          1.39462        2.25408        2.17570
H          0.25152        0.96600        2.61677
H          2.18739       -0.65616        2.68960
H          3.23983        0.61902        2.04329
H          2.07741        0.93620       -1.68252
H          1.35935        2.01720       -0.47071
H         -1.40082       -3.91800       -0.02403
H         -1.22374       -3.25703       -1.71575
H          1.14411       -2.90990       -1.34756
H          0.99261       -3.54630        0.35574
