46
1587.log
C         -4.01506        3.31483        0.17682
C         -4.20876        1.81630        0.41994
N         -3.62804        0.96456       -0.60047
C         -2.18655        0.87682       -0.61436
P         -1.69626       -0.89087       -0.23282
C         -2.71473       -1.74440       -1.49427
Cl        -2.78493       -1.22231        1.38319
Rh         0.52483       -1.41119       -0.19797
Cl         0.57710        0.02722       -2.12868
C          2.37444        3.84397       -1.67732
C          3.25437        2.97248       -0.77767
N          2.62922        1.74619       -0.32192
C          1.49374        1.92357        0.55122
P          1.15186        0.23701        1.23405
C          0.03587        0.63757        2.64319
Cl         2.83218       -0.06812        2.20490
C          1.72003       -2.90343       -1.37176
C          2.50508       -2.03121       -0.54905
H         -2.95772        3.56954        0.13353
H         -4.47671        3.60880       -0.76420
H         -4.47321        3.88662        0.97926
H         -3.77442        1.53182        1.38123
H         -5.27827        1.58998        0.45783
H         -3.98736        1.22405       -1.51157
H         -1.72034        1.53040        0.13080
H         -1.74916        1.11223       -1.58708
H         -3.73212       -1.35645       -1.45711
H         -2.27160       -1.56242       -2.47232
H         -2.71050       -2.81472       -1.28891
H          0.25925       -2.59109       -1.15650
H          0.40115       -2.34972        0.98478
H          1.53614        4.25854       -1.12082
H          2.95410        4.66737       -2.08635
H          1.98349        3.24823       -2.50003
H          4.15498        2.68117       -1.32511
H          3.56469        3.54005        0.10644
H          2.32258        1.20619       -1.13282
H          0.58828        2.31560        0.05973
H          1.76864        2.58826        1.38031
H          0.49156        1.39864        3.27581
H         -0.12634       -0.27042        3.22168
H         -0.92531        0.98634        2.27176
H          1.67953       -3.95409       -1.09820
H          1.75460       -2.73706       -2.44558
H          3.09398       -1.26753       -1.05091
H          3.00593       -2.46823        0.31081
