42
1591.log
C          3.65966       -1.09987        0.93327
C          2.97652        0.24125        0.74624
F          3.89788        1.18989        0.35163
P          1.67388        0.18125       -0.58732
C          2.73049        0.05240       -2.08020
C          1.19922        1.98250       -0.83594
O          1.76815        2.90695       -0.34020
O          0.14784        2.12185       -1.63670
Rh        -0.06354       -1.24266       -0.46358
Cl         0.41534       -1.71189        1.82230
C         -4.26377        1.13175       -0.25363
C         -2.80790        1.17796       -0.66929
F         -2.67249        0.56223       -1.90728
P         -1.56049        0.29725        0.43751
C         -2.54087       -0.12419        1.93374
C         -0.85834        1.83880        1.22005
O         -1.47487        2.86339        1.31199
O          0.34818        1.62479        1.71056
C         -0.91413       -3.31108       -0.74776
C         -1.93397       -2.49972       -0.30424
H          2.92075       -1.82963        1.25611
H          4.12317       -1.43391        0.00727
H          4.42893       -1.01409        1.69765
H          2.53001        0.59252        1.68294
H          2.11942        0.21561       -2.96802
H          3.52555        0.79740       -2.03124
H          3.15314       -0.94999       -2.13395
H         -0.18996        1.26266       -1.96553
H          1.00549       -2.19160       -0.93972
H         -0.37202       -0.94757       -1.92115
H         -4.86658        1.60080       -1.02941
H         -4.60478        0.10608       -0.12962
H         -4.39976        1.68174        0.67221
H         -2.47761        2.21539       -0.81349
H         -2.93308        0.78179        2.39497
H         -1.86244       -0.63127        2.62234
H         -3.36008       -0.79385        1.67809
H          0.72346        2.41748        2.13925
H         -0.84961       -3.59039       -1.79329
H         -0.42216       -3.97928       -0.04873
H         -2.23394       -2.57103        0.73478
H         -2.68468       -2.13828       -1.00014
