42
1599.log
C         -3.86536        0.26401        0.71048
C         -3.28727       -0.84185       -0.15124
F         -3.39822       -0.50525       -1.49045
P         -1.46624       -1.13568        0.14214
C         -1.30168       -2.73860       -0.73477
C         -1.57902       -1.69376        1.88688
Rh        -0.17133        0.63448       -0.48395
Cl        -0.53197        1.54654        1.71490
C          2.66496       -2.00180       -1.49357
C          3.10821       -0.71407       -0.82997
F          4.28470       -0.93178       -0.13050
P          1.84793       -0.01331        0.36043
C          2.87292        1.29379        1.12461
C          1.92237       -1.26641        1.69253
C         -0.72638        2.59152       -1.39792
C          0.66587        2.47535       -1.11801
H         -4.04089       -0.10377        1.71745
H         -3.17483        1.10518        0.76545
H         -4.80794        0.60835        0.28889
H         -3.85097       -1.78029       -0.03743
H         -0.28006       -3.10098       -0.63382
H         -1.99493       -3.47507       -0.32950
H         -1.50975       -2.57502       -1.79073
H         -0.71930       -2.31073        2.13543
H         -1.58136       -0.81641        2.53135
H         -2.49247       -2.27024        2.03265
H         -1.46313        1.22697       -1.03468
H          0.08754        0.02801       -1.84695
H          1.69891       -1.83756       -1.96566
H          3.38634       -2.31336       -2.24620
H          2.57598       -2.79287       -0.75205
H          3.33869        0.05557       -1.57918
H          3.17815        2.01784        0.37041
H          3.75493        0.85130        1.58620
H          2.26794        1.79390        1.88023
H          1.44690       -2.19171        1.37111
H          2.96145       -1.45565        1.96121
H          1.38514       -0.86282        2.55023
H         -1.04378        2.60584       -2.43614
H         -1.31500        3.23533       -0.75001
H          1.04568        3.06157       -0.28635
H          1.34866        2.41267       -1.96165
