48
1604.log
C         -0.50676       -1.31044       -3.68159
C         -0.51295       -1.82221       -2.25027
P         -1.19624       -0.58454       -1.08416
C         -2.92457       -0.37656       -1.65892
O         -1.36083       -1.66171        0.14010
C         -1.81004       -1.34403        1.41326
N         -3.18694       -1.85387        1.62719
O         -3.86440       -2.07969        0.65685
O         -3.53005       -1.98578        2.77900
Rh        -0.05616        1.37484       -0.71538
Cl        -1.59241        1.81103        1.09679
C          1.46808        2.18795        2.91415
C          1.43128        0.72224        2.51134
P          1.48188        0.48070        0.67500
C          3.25476        0.82860        0.34027
O          1.37575       -1.17050        0.60930
C          2.33097       -2.07891        1.00059
N          3.25202       -2.40561       -0.15085
O          4.13659       -3.18559        0.09490
O          3.03196       -1.87515       -1.20319
C         -0.42434        3.44992       -1.44861
C          0.70730        3.34097       -0.57518
H          0.04492       -1.99293       -4.32404
H         -1.51767       -1.21711       -4.07114
H         -0.02379       -0.33515       -3.72510
H          0.50865       -2.02892       -1.92712
H         -1.10805       -2.73227       -2.15043
H         -3.40683       -1.34916       -1.73657
H         -3.46378        0.23353       -0.93463
H         -2.92601        0.13690       -2.61719
H         -1.17298       -1.81506        2.17023
H         -1.84319       -0.24291        1.58434
H         -1.03561        2.07063       -1.67110
H          0.86829        1.09487       -1.87430
H          0.57667        2.68872        2.54643
H          2.34712        2.68885        2.51412
H          1.48270        2.27819        3.99831
H          0.50031        0.27322        2.86578
H          2.27180        0.17949        2.95865
H          3.48394        0.51923       -0.67711
H          3.40389        1.90223        0.41382
H          3.91694        0.32955        1.04772
H          1.83632       -3.02119        1.27000
H          2.97107       -1.75856        1.83132
H         -0.23525        3.68272       -2.49254
H         -1.31036        3.93963       -1.05331
H          0.60533        3.78058        0.41289
H          1.68905        3.49543       -1.01518
