46
161.log
C          5.42249        0.84076        0.31853
O          4.09893        0.97700       -0.14150
C          3.18109        0.05864        0.41056
C          2.84929        0.31085        1.87499
P          1.68067        0.24389       -0.68603
C          2.44433        0.39057       -2.34613
C          1.37788        1.96278       -0.37157
N          1.06854        3.04436       -0.14581
Rh        -0.20093       -1.03267       -0.55120
Cl         0.46339       -2.07749        1.49872
C         -3.48161        1.76092       -2.16201
O         -3.10209        1.09247       -0.98418
C         -2.27190        1.82847       -0.10836
C         -3.03578        2.76610        0.81611
P         -1.44253        0.38198        0.71608
C         -0.78943        1.03496        2.30059
C         -2.92099       -0.35003        1.36938
N         -3.85725       -0.83486        1.81699
C         -0.67858       -3.07854       -1.33583
C         -1.77477       -2.43000       -0.68019
H          5.52144        1.14093        1.36600
H          5.77248       -0.19225        0.20699
H          6.02933        1.49952       -0.30047
H          3.54615       -0.97761        0.28666
H          2.04748       -0.36199        2.17369
H          2.53893        1.34513        2.01592
H          3.71488        0.11216        2.50361
H          2.86815       -0.57745       -2.61679
H          1.65887        0.64268       -3.05798
H          3.22048        1.15255       -2.34854
H          0.51592       -2.15348       -1.33726
H         -0.66777       -0.38605       -1.84327
H         -4.03570        1.03874       -2.75854
H         -4.12439        2.62163       -1.94955
H         -2.60213        2.10019       -2.72178
H         -1.51308        2.39180       -0.67636
H         -2.34052        3.31765        1.44342
H         -3.72950        2.20281        1.43793
H         -3.60501        3.48323        0.22736
H         -0.34338        0.20505        2.84767
H         -0.02535        1.78331        2.09237
H         -1.59401        1.47136        2.89104
H         -0.75012       -3.22778       -2.41000
H         -0.21367       -3.90958       -0.81168
H         -2.06844       -2.81401        0.29319
H         -2.61464       -2.10393       -1.28763
