44
1624.log
C         -2.85505       -0.07236        2.81439
C         -2.67935        0.76403        1.55291
P         -1.69219       -0.12507        0.28856
C         -2.93066       -1.34247       -0.39993
C         -4.09837       -0.66097       -0.87804
N         -5.03004       -0.10930       -1.24461
C         -1.75945        1.12488       -1.11495
O         -2.24012        2.21205       -0.93810
O         -1.18810        0.75698       -2.23494
Rh         0.43950       -1.00903        0.58026
Cl         0.24612       -1.74303       -1.74568
C          2.74289        1.62170        2.45436
C          3.06090        1.38512        0.97546
P          1.57868        0.84849        0.01634
C          2.23427        0.99540       -1.71160
C          3.21138       -0.04505       -1.86457
N          3.99469       -0.87400       -1.94058
C          0.53501        2.37999        0.16146
O         -0.08849        2.61148        1.16001
O          0.53268        3.11584       -0.93370
C          0.96028       -3.18535        1.10511
C          2.07678       -2.25077        0.86352
H         -1.88379       -0.39972        3.18540
H         -3.33795        0.51582        3.59074
H         -3.47019       -0.95137        2.62619
H         -3.64166        1.03995        1.11027
H         -2.12837        1.68121        1.77807
H         -2.45270       -1.89799       -1.21506
H         -3.20654       -2.04161        0.39697
H         -0.76125       -0.16542       -2.18126
H         -0.07237       -2.52464        1.00466
H          0.50373       -0.58815        2.02377
H          1.70325        1.37620        2.66835
H          3.37232        1.00779        3.09205
H          2.89783        2.66301        2.72201
H          3.45468        2.29121        0.50362
H          3.80403        0.59229        0.84672
H          1.42219        0.85172       -2.43059
H          2.69167        1.97784       -1.86186
H         -0.14484        3.81746       -0.89971
H          0.90379       -3.59532        2.11201
H          0.84108       -3.96239        0.35126
H          2.66441       -2.43078       -0.03488
H          2.70968       -2.04326        1.72436
