36
1626.log
C          2.24836       -1.59147        2.56972
P          0.94121       -1.02506        1.42655
C         -0.54983       -1.70940        2.23490
O          1.25490       -2.12864        0.25961
C          0.62114       -1.84691       -0.90856
O         -0.51779       -1.44044       -0.95005
Cl         1.18729       -3.01476       -2.10817
Rh         1.11857        1.06296        0.48131
Cl         1.81677       -0.13853       -1.48738
C         -1.79357        2.89550       -0.12039
P         -0.97489        1.27338       -0.40387
C         -1.26687        1.09339       -2.19739
O         -2.12250        0.29260        0.34356
C         -3.34423        0.10918       -0.06371
O         -3.95655        0.64762       -0.92161
Cl        -4.08434       -1.13408        0.93281
C          2.88111        2.41188        0.27590
C          1.69648        2.90612       -0.36388
H          2.13983       -2.66086        2.74296
H          2.15682       -1.04874        3.50705
H          3.22605       -1.39601        2.13369
H         -1.37716       -1.71138        1.53128
H         -0.33869       -2.72846        2.55814
H         -0.80687       -1.08666        3.08762
H          2.57202        1.09334        0.98108
H          0.66895        1.73976        1.75483
H         -2.81809        2.87090       -0.48717
H         -1.23837        3.66456       -0.64953
H         -1.78780        3.12346        0.94307
H         -0.54083        1.72675       -2.70407
H         -2.27705        1.40704       -2.45092
H         -1.10770        0.06059       -2.49367
H          3.23947        2.94846        1.14902
H          3.68097        2.05232       -0.36613
H          1.68799        2.90474       -1.45129
H          1.23463        3.78816        0.06995
