32
1644.log
C          2.45223        1.42895       -1.76819
P          1.72042        0.48879       -0.37364
C          3.17994       -0.41331        0.08994
N          4.12530       -1.00766        0.34317
C          1.85307        1.70362        1.02716
F          0.75693        2.52664        1.04422
Rh        -0.09161       -0.87101       -0.45644
Cl         0.61795       -1.23939        1.80998
C         -1.89729        1.06238        1.99008
P         -1.63232        0.62566        0.23380
C         -3.31582        0.18331       -0.13534
N         -4.39419       -0.11874       -0.37631
C         -1.68131        2.28089       -0.63287
F         -0.49380        2.46969       -1.28757
C         -0.25151       -3.08537       -0.74309
C         -1.47808       -2.46402       -0.35458
H          1.77208        2.22666       -2.05729
H          2.57359        0.75029       -2.61188
H          3.42116        1.84177       -1.48632
H          2.74264        2.33574        0.91974
H          1.86940        1.15685        1.97726
H          0.82867       -2.00992       -0.92785
H         -0.44818       -0.58948       -1.90769
H         -2.01004        0.13541        2.55247
H         -2.78992        1.67913        2.09676
H         -1.02489        1.58915        2.37000
H         -1.79686        3.10712        0.07705
H         -2.47096        2.29805       -1.39231
H         -0.18864       -3.49800       -1.74559
H          0.26813       -3.67591        0.00661
H         -1.82024       -2.63296        0.66391
H         -2.28343       -2.42637       -1.08346
