44
1646.log
C         -4.05428        1.80086       -1.62052
O         -3.45120        0.99228       -0.64114
C         -2.06381        0.85019       -0.83667
P         -1.45164       -0.38465        0.40008
C         -2.30719        0.09010        1.94231
C         -2.59196       -1.74652       -0.13900
F         -2.49235       -2.77738        0.76508
Rh         0.71580       -1.11978        0.34765
Cl         0.32720       -1.17679       -2.02279
C         -0.74408        3.39486        1.76889
O         -0.16393        2.34324        1.03404
C          1.23257        2.28000        1.16734
P          1.77856        0.86372        0.11243
C          3.58790        1.00426        0.37761
C          1.66256        1.65818       -1.55630
F          2.29905        2.87666       -1.54667
C          1.49428       -3.20540        0.23508
C          2.51187       -2.21167        0.11021
H         -3.91872        1.37634       -2.62228
H         -5.11587        1.84219       -1.38303
H         -3.63645        2.81506       -1.60884
H         -1.54599        1.80817       -0.70900
H         -1.84120        0.45313       -1.83865
H         -3.30041        0.46890        1.71112
H         -2.37621       -0.80439        2.56101
H         -1.72362        0.83881        2.46819
H         -3.63515       -1.41552       -0.14790
H         -2.28971       -2.13360       -1.11826
H          0.11412       -2.51358        0.51064
H          0.89837       -1.05856        1.85213
H         -1.81733        3.34797        1.59356
H         -0.54182        3.28797        2.84157
H         -0.35958        4.36604        1.43409
H          1.70723        3.21836        0.83805
H          1.52395        2.08223        2.21158
H          3.82022        0.70037        1.39689
H          3.91435        2.03050        0.21185
H          4.10442        0.34078       -0.31367
H          2.15098        1.02497       -2.30335
H          0.61903        1.82041       -1.83838
H          1.48900       -3.82173        1.12910
H          1.20272       -3.73776       -0.66592
H          2.94336       -2.07267       -0.87798
H          3.23092       -2.12171        0.92024
