42
1649.log
C          0.18559        2.24347        1.80614
P          1.06004        1.33903        0.46428
C          1.35963        2.76011       -0.65333
C          2.66807        1.15039        1.37025
C          3.69142        0.27258        0.68656
Cl         4.10162        0.91185       -0.92097
Rh         0.25283       -0.54618       -0.54720
Cl         1.16437       -1.88828        1.23584
C         -2.24555       -2.70791        0.60886
P         -1.71035       -0.95683        0.55399
C         -1.84837       -0.57563        2.34263
C         -3.28233       -0.20796       -0.08747
C         -3.18067        1.29759       -0.16438
Cl        -4.62631        1.99540       -0.95264
C          1.27406       -1.82342       -2.07223
C         -0.01920       -2.29980       -1.71830
H          0.75648        3.13162        2.07781
H         -0.80091        2.54324        1.45682
H          0.08485        1.60103        2.67797
H          0.39031        3.14594       -0.96669
H          1.90597        2.43929       -1.53603
H          1.91507        3.54380       -0.13950
H          3.07325        2.14974        1.55801
H          2.42156        0.67814        2.32642
H          4.62089        0.23036        1.25595
H          3.29809       -0.73592        0.54857
H          1.57230       -0.45040       -1.30622
H         -0.40301        0.28753       -1.62753
H         -3.15187       -2.80115        1.20671
H         -1.44712       -3.29230        1.06458
H         -2.43288       -3.07594       -0.39796
H         -2.75299       -1.03056        2.74501
H         -0.97562       -0.99468        2.84145
H         -1.87688        0.49770        2.50903
H         -4.11857       -0.50817        0.54909
H         -3.44159       -0.61490       -1.08951
H         -2.31452        1.59360       -0.76000
H         -3.12613        1.75053        0.82540
H          1.41959       -1.41535       -3.06786
H          2.13252       -2.37144       -1.69384
H         -0.05735       -3.19887       -1.11102
H         -0.80456       -2.23680       -2.46707
