36
1650.log
C          2.35122        1.03887       -1.86589
P          1.67103        0.15101       -0.42458
C          3.01043       -1.10058       -0.12673
F          4.25619       -0.55889       -0.28034
C          2.07525        1.34139        0.93915
F          3.36713        1.77717        0.83410
Rh        -0.38349       -0.86080       -0.36992
Cl         0.25228       -1.33130        1.89570
C         -1.51734        1.52329        2.03731
P         -1.64448        0.87906        0.32915
C         -3.49607        0.71275        0.25311
F         -3.86411        0.43132       -1.03455
C         -1.56211        2.44739       -0.66288
F         -0.25122        2.84309       -0.75105
C         -0.91469       -3.02508       -0.63792
C         -2.01210       -2.20698       -0.23090
H          1.73771        1.91565       -2.06162
H          3.37809        1.33890       -1.65867
H          2.32008        0.37949       -2.73216
H          2.92271       -1.91777       -0.85445
H          2.92921       -1.49330        0.89338
H          1.95923        0.84543        1.90948
H          1.43261        2.22499        0.86795
H          0.32316       -2.13790       -0.84124
H         -0.71290       -0.53916       -1.81479
H         -2.31735        2.23189        2.25029
H         -0.54936        2.00176        2.17118
H         -1.56704        0.67763        2.72218
H         -3.84210       -0.11167        0.88546
H         -3.99877        1.64630        0.53699
H         -2.11903        3.27017       -0.19832
H         -1.91640        2.26116       -1.68239
H         -0.93864       -3.44373       -1.63968
H         -0.48864       -3.69225        0.10639
H         -2.35265       -2.32191        0.79537
H         -2.80932       -2.03924       -0.94931
