44
1657.log
C          3.61961       -1.82710        1.29077
C          3.96584       -0.85020        0.20516
O          4.60573       -1.13041       -0.77102
O          3.55603        0.43758        0.32781
C          2.62631        0.87744        1.29142
P          1.15307        1.44350        0.29600
C          1.80211        2.98424       -0.43038
C          0.25261        2.10105        1.67906
N         -0.35269        2.46743        2.58091
Rh         0.14633       -0.16575       -0.94618
Cl         0.16795       -1.44294        1.10263
C         -2.75865       -2.92006        1.80699
C         -2.77351       -1.63508        1.05035
O         -2.73089       -1.53898       -0.16391
O         -2.88492       -0.56032        1.80684
C         -2.84315        0.65938        1.09725
P         -1.98688        0.55437       -0.56955
C         -3.29586        0.57758       -1.84768
C         -1.75982        2.34613       -0.59017
N         -1.52385        3.46819       -0.63721
C          0.98477       -1.90805       -2.08106
C         -0.43782       -1.83885       -2.10354
H          4.11655       -2.76727        1.06948
H          2.54061       -1.99616        1.32610
H          3.94916       -1.46305        2.26209
H          3.06346        1.72361        1.83637
H          2.31919        0.10089        1.99554
H          2.58651        2.70461       -1.13424
H          2.20350        3.63925        0.34261
H          0.99651        3.48778       -0.96414
H          1.55037       -0.66277       -1.30593
H          0.15189        0.69010       -2.19339
H         -3.24589       -2.79279        2.76840
H         -3.23194       -3.70275        1.22095
H         -1.71660       -3.19164        1.97535
H         -2.31714        1.37553        1.73578
H         -3.87160        1.01298        0.92804
H         -3.57487       -0.43740       -2.11998
H         -4.16471        1.12903       -1.48702
H         -2.88079        1.08992       -2.71544
H          1.52686       -1.70906       -3.00035
H          1.44621       -2.67183       -1.46080
H         -0.98584       -2.56596       -1.51231
H         -0.92068       -1.58346       -3.04283
