38
1659.log
C          2.48681        1.22063        2.41347
C          2.10481        1.77472        1.04452
P          1.77417        0.46006       -0.19117
C          1.77197        1.42216       -1.77764
O          1.33997        2.53468       -1.84533
N          3.41848       -0.19848       -0.51533
O          3.45042       -0.99040       -1.42876
O          4.35367        0.21647        0.12011
Rh         0.10263       -1.09915       -0.32975
Cl        -0.27957       -0.95075        2.05876
C         -2.92938        2.90164       -0.61849
C         -1.78696        2.02433       -1.12170
P         -1.58672        0.44584       -0.19942
C         -1.61369        0.98085        1.60559
O         -0.96975        1.94860        1.92718
N         -3.23528       -0.21357       -0.30636
O         -3.89469        0.04174       -1.28832
O         -3.58016       -0.89972        0.63330
C          0.02464       -3.33963       -0.25754
C         -1.24691       -2.73530       -0.44300
H          2.61119        2.04489        3.11083
H          3.42150        0.66663        2.36460
H          1.70625        0.56864        2.79692
H          1.17591        2.35022        1.12140
H          2.89470        2.41837        0.64203
H          2.12840        0.84932       -2.65482
H          1.16396       -2.19007       -0.24393
H          0.21698       -1.10910       -1.83838
H         -2.92697        3.83942       -1.16903
H         -2.81100        3.12920        0.43897
H         -3.89384        2.42399       -0.77555
H         -0.83252        2.55173       -1.02449
H         -1.92241        1.76809       -2.17697
H         -2.40311        0.51870        2.21738
H          0.45963       -3.88994       -1.08554
H          0.25235       -3.75098        0.72195
H         -1.93494       -2.73219        0.39970
H         -1.72915       -2.84376       -1.41131
