46
167.log
C          3.11911       -1.06624        1.90036
N          3.19342       -0.80340        0.48432
Br         5.00239       -1.02740       -0.14582
C          2.28319       -1.60439       -0.28436
P          0.51711       -1.02116       -0.09805
C         -0.12309       -1.87384       -1.58386
C         -0.13672       -2.14685        1.19887
Rh         0.38093        1.25350        0.09700
Cl        -0.27298        1.43797       -2.20413
C         -3.25288       -0.16619       -1.54771
N         -2.90188       -0.74321       -0.27502
Br        -3.98574       -2.32681        0.09431
C         -3.02649        0.18356        0.81132
P         -1.78838        1.57739        0.71706
C         -2.71586        2.85758       -0.21414
C         -2.08176        2.19162        2.42314
C          1.92089        2.81509       -0.29840
C          0.67479        3.35637        0.12871
H          3.23120       -2.12815        2.15557
H          2.13982       -0.71667        2.23114
H          3.88567       -0.48931        2.41506
H          2.51261       -1.45921       -1.34606
H          2.33968       -2.68182       -0.05086
H         -1.20247       -1.95220       -1.50232
H          0.12083       -1.28413       -2.46572
H          0.31697       -2.86859       -1.65923
H          0.10998       -1.78798        2.19511
H          0.25947       -3.15207        1.05854
H         -1.21847       -2.17501        1.09533
H          1.83883        1.21441       -0.34242
H          0.79448        1.16459        1.55117
H         -4.19710        0.39165       -1.53036
H         -3.31503       -0.94686       -2.30439
H         -2.42959        0.50294       -1.82244
H         -2.80454       -0.34476        1.74571
H         -4.03155        0.63461        0.89047
H         -2.52525        2.75486       -1.28051
H         -2.35081        3.83198        0.10974
H         -3.78469        2.78855       -0.01335
H         -1.68107        1.47992        3.14206
H         -3.14616        2.33874        2.60436
H         -1.55861        3.13786        2.54683
H          2.76580        2.86699        0.38139
H          2.19004        2.93845       -1.34342
H          0.08124        3.87189       -0.62096
H          0.63577        3.81614        1.11333
