46
1674.log
C         -3.46155        2.56053        1.25465
C         -2.10160        1.98146        0.86891
C         -1.68426        2.45906       -0.51729
O         -2.01802        3.48411       -1.02934
O         -0.83613        1.58014       -1.04475
P         -1.98096        0.11307        0.86196
C         -2.99140       -0.31359        2.34002
N         -3.23197       -0.18760       -0.42063
O         -3.77789       -1.25823       -0.32892
O         -3.49115        0.69528       -1.19682
Rh        -0.27970       -1.34566        0.49029
Cl        -0.89418       -1.23141       -1.81677
C          3.45092       -0.61877        1.90684
C          3.27056       -0.49719        0.39297
C          4.12646        0.49834       -0.21190
O          4.63203        1.52417        0.00001
O          4.45106        2.32258        1.55019
P          1.49653        0.07004        0.00933
C          1.58687        1.81941        0.53207
N          1.80729        0.21791       -1.78019
O          2.33770       -0.74812       -2.27111
O          1.49749        1.23439       -2.34831
C          0.00284       -3.59107        0.15283
C          1.20804       -2.95327       -0.03868
H         -4.27945        2.00740        0.79936
H         -3.60329        2.59459        2.33097
H         -3.50488        3.57835        0.86984
H         -1.34359        2.33920        1.57619
H         -0.58257        1.78883       -1.96340
H         -3.15318        0.55775        2.96814
H         -3.95030       -0.72887        2.02980
H         -2.45963       -1.06909        2.91291
H         -1.46750       -2.20978        0.79836
H          0.07721       -1.41920        1.96906
H          4.31440       -1.24048        2.13209
H          2.56348       -1.06973        2.35086
H          3.61348        0.36121        2.34887
H          3.40268       -1.45636       -0.11631
H          5.07409        3.04393        1.46450
H          2.51416        2.02942        1.07087
H          0.75331        2.03254        1.19530
H          1.52405        2.46607       -0.34443
H         -0.17992       -4.15149        1.06305
H         -0.61159       -3.85930       -0.69920
H          1.54912       -2.76225       -1.05190
H          1.97490       -3.04681        0.72316
