42
1675.log
C          3.06454       -2.61340       -0.52877
C          2.07191       -2.05309        0.48442
P          1.54179       -0.30275        0.13745
C          1.84189       -0.12150       -1.70270
O          2.75997        0.55448       -2.10655
C          3.06813        0.60826        0.69816
O          2.97038        1.95039        0.32694
Rh        -0.38115        0.85202        0.62013
Cl        -0.16769        1.32075       -1.78496
C         -1.08504       -2.72484       -1.33082
C         -1.84761       -2.50911       -0.02928
P         -2.05012       -0.70940        0.34038
C         -0.86711       -1.56332        2.56322
O          0.13193       -1.98765        2.89044
C         -3.27569       -0.28589       -1.01471
O         -2.75555       -0.32680       -2.30542
C         -0.63471        3.03144        1.02002
C         -1.87146        2.34049        0.87642
H          2.59211       -2.76563       -1.49666
H          3.43956       -3.57427       -0.18078
H          3.91420       -1.94859       -0.66624
H          2.51656       -2.03097        1.48414
H          1.18782       -2.69100        0.53126
H          1.27039       -0.78992       -2.36588
H          3.96707        0.13487        0.27713
H          3.11673        0.57255        1.79225
H          3.00997        1.97630       -0.64475
H          0.58756        2.00626        0.86249
H         -0.35564        0.59932        2.10311
H         -0.15138       -2.16064       -1.31319
H         -0.85255       -3.77884       -1.47275
H         -1.67228       -2.37707       -2.17731
H         -1.32940       -2.98509        0.80721
H         -2.85040       -2.94120       -0.09553
H         -3.01664       -0.80329        1.32950
H         -4.08275       -1.02921       -0.97330
H         -3.70786        0.70126       -0.77943
H         -1.99069        0.27964       -2.35256
H         -0.35605        3.39033        2.00576
H         -0.32446        3.68831        0.21241
H         -2.43526        2.52736       -0.03389
H         -2.49197        2.21091        1.75907
