48
168.log
C         -0.54672        3.83999       -2.10368
N         -0.54448        2.61265       -1.33261
C         -1.86130        2.21825       -0.88955
P         -1.66488        0.84559        0.33510
C         -1.03087        1.73190        1.80568
C         -3.45970        0.72049        0.83175
C         -3.57786       -0.14782        1.96584
N         -3.66581       -0.82087        2.88587
Rh        -0.71531       -1.14206       -0.25578
Cl         0.13211       -0.32959       -2.35749
C          2.91062        3.09374        0.92078
N          2.67852        1.68056        1.15881
C          2.01530        1.04229        0.04172
P          1.37402       -0.64217        0.49146
C          1.76916       -0.80726        2.27028
C          2.72693       -1.69431       -0.24645
C          3.99644       -1.17455        0.15128
N          4.98972       -0.72135        0.49676
C         -1.55417       -2.92466       -1.31101
C         -0.20483       -3.09729       -0.86348
H         -0.88238        4.66172       -1.46721
H         -1.19910        3.79692       -2.98715
H          0.47005        4.04653       -2.43157
H         -0.17030        1.85440       -1.90948
H         -2.33913        3.06845       -0.38242
H         -2.52592        1.88418       -1.70891
H         -1.57434        2.66522        1.95402
H         -1.17457        1.08040        2.66847
H          0.03098        1.93903        1.69077
H         -4.03380        0.30966       -0.00462
H         -3.84444        1.71244        1.09130
H         -2.06314       -1.51989       -0.89681
H         -1.15466       -1.68622        1.08626
H          3.39675        3.51963        1.79681
H          3.53643        3.28887        0.03929
H          1.95030        3.58903        0.77277
H          3.57235        1.22794        1.33304
H          1.15217        1.65722       -0.24148
H          2.64605        0.94057       -0.85903
H          1.24333       -0.03249        2.82193
H          1.41177       -1.78111        2.60339
H          2.83839       -0.71940        2.45107
H          2.62400       -1.64678       -1.33564
H          2.61098       -2.72740        0.09320
H         -2.33076       -3.49913       -0.81431
H         -1.71168       -2.81222       -2.38056
H          0.55838       -3.12676       -1.63674
H         -0.03562       -3.80788       -0.05786
