50
1685.log
C          0.64268       -3.43643       -0.46477
P          0.61203       -1.65600       -0.06408
C          1.07825       -1.75190        1.70637
C          2.18258       -1.08241       -0.90892
C          3.39665       -1.56765       -0.19937
O          3.74677       -2.72537       -0.19360
C          4.17150       -0.52172        0.59538
N          4.01083        0.82480        0.06478
Rh        -1.29786       -0.53591       -0.62037
Cl        -2.20274       -1.99045        1.05291
C         -1.60624        0.81058        2.60288
P         -1.12072        1.17673        0.87656
C         -2.15693        2.66132        0.59257
C          0.54577        1.97941        1.18645
C          0.74991        3.15381        0.27570
O          0.46117        4.28381        0.59699
C          1.33409        2.82384       -1.08239
N          1.46547        3.95024       -1.98297
C         -2.99322       -1.14266       -1.94783
C         -3.24333        0.05242       -1.20100
H          0.46037       -3.57781       -1.52994
H          1.61140       -3.85881       -0.19741
H         -0.15104       -3.92232        0.10198
H          0.21371       -2.15941        2.23019
H          1.92758       -2.42241        1.83083
H          1.30859       -0.76779        2.11007
H          2.16603        0.00354       -0.96973
H          2.12039       -1.51346       -1.91006
H          3.76729       -0.53359        1.61387
H          5.21692       -0.86151        0.65676
H          4.45621        1.49440        0.68374
H          4.47285        0.89642       -0.83722
H         -1.56672       -1.63409       -1.66067
H         -0.67046        0.30702       -1.71433
H         -1.60810        1.72404        3.19723
H         -2.60358        0.37313        2.58551
H         -0.92992        0.07705        3.03627
H         -1.88367        3.45141        1.29150
H         -2.02012        3.02048       -0.42575
H         -3.20174        2.38767        0.73318
H          0.54794        2.32358        2.22350
H          1.32516        1.23441        1.02324
H          2.32292        2.37789       -0.92623
H          0.69351        2.06115       -1.54344
H          2.01878        4.67722       -1.53850
H          0.55112        4.35355       -2.16363
H         -2.88671       -1.05282       -3.02519
H         -3.51734       -2.04205       -1.63611
H         -3.95571       -0.02208       -0.38307
H         -3.31321        0.98350       -1.75681
