40
1688.log
C          3.49044       -2.02193        0.64946
C          3.93838       -1.19284       -0.51525
O          5.06025       -0.78168       -0.64632
C          2.88312       -0.88167       -1.56983
P          1.44095        0.11200       -0.93246
C          1.14266        1.15697       -2.40958
Br         2.53013        1.53514        0.33138
Rh        -0.29156       -1.15573       -0.09055
Cl         0.35429       -0.69051        2.16561
C         -0.47944        2.82823        1.78048
C         -0.72046        2.82884        0.30887
O          0.03707        3.31355       -0.49593
C         -1.98343        2.13870       -0.16817
P         -2.01734        0.32207        0.22367
C         -2.81681        0.32685        1.87734
Br        -3.82843       -0.12460       -0.96197
C         -0.38505       -3.35140        0.40723
C         -1.61441       -2.67272        0.61906
H          4.32716       -2.19101        1.32251
H          2.70167       -1.50213        1.19772
H          3.10049       -2.97854        0.30485
H          3.37126       -0.31634       -2.37067
H          2.47615       -1.80778       -1.98437
H          0.49113        1.98976       -2.14610
H          2.08574        1.55897       -2.78124
H          0.66509        0.54859       -3.17649
H          0.68487       -2.32162       -0.15573
H         -0.69956       -1.43265       -1.52999
H         -0.12919        1.83030        2.06378
H          0.30841        3.53437        2.02897
H         -1.38472        3.04902        2.33960
H         -2.04464        2.24569       -1.25785
H         -2.86628        2.60281        0.28227
H         -2.05805        0.45321        2.64665
H         -3.30773       -0.63414        2.03441
H         -3.56250        1.11969        1.94364
H         -0.31998       -4.05002       -0.42127
H          0.18416       -3.64504        1.28447
H         -1.90808       -2.50945        1.65223
H         -2.44056       -2.88615       -0.05534
