48
1689.log
C          3.21419        1.87422        1.88278
C          2.39027        1.27600        0.77592
O          1.42735        1.83320        0.26534
C          3.07902        0.18677       -0.06356
C          4.06682        0.77421       -0.90909
N          4.84720        1.24541       -1.60311
P          1.69848       -0.53888       -1.09509
C          2.61701       -1.92445       -1.87757
C          1.56689        0.57497       -2.53711
Rh        -0.05392       -1.12744        0.24466
Cl         1.25788       -0.33489        2.12135
C         -4.71266       -1.04608       -1.14337
C         -3.43054       -0.26494       -1.16543
O         -2.69213       -0.20341       -2.10992
C         -3.10927        0.48178        0.12243
C         -3.87656        1.68635        0.15277
N         -4.49475        2.65035        0.17200
P         -1.24982        0.84743        0.17284
C         -1.25379        1.82744        1.71850
C         -1.17422        2.18171       -1.07577
C         -0.39733       -2.99441        1.40468
C         -1.43507       -2.02040        1.57055
H          3.95599        2.52835        1.42070
H          2.58405        2.46809        2.53956
H          3.72738        1.11111        2.45962
H          3.53426       -0.59506        0.55345
H          3.50785       -1.55266       -2.38502
H          1.96095       -2.40529       -2.60150
H          2.90536       -2.65978       -1.12685
H          0.74669        0.20937       -3.15464
H          2.49717        0.56285       -3.10509
H          1.34685        1.58636       -2.20898
H          0.65382       -2.47862        0.39785
H         -0.80095       -1.66201       -0.94913
H         -4.61799       -1.88039       -0.44975
H         -4.93325       -1.43293       -2.13484
H         -5.52892       -0.41229       -0.80082
H         -3.38035       -0.11519        0.99968
H         -1.99447        2.62471        1.65798
H         -1.46308        1.18476        2.57302
H         -0.26321        2.25667        1.84067
H         -0.24678        2.72621       -0.92932
H         -1.20826        1.75840       -2.07577
H         -2.01904        2.85490       -0.93055
H         -0.64536       -3.90838        0.87294
H          0.27727       -3.15227        2.24193
H         -1.49355       -1.52695        2.53823
H         -2.40766       -2.27801        1.15779
