50
169.log
C         -3.36359       -1.70146       -1.09089
O         -3.05196       -0.32693       -0.90428
P         -1.84991        0.21875        0.00094
C         -2.75788        0.35739        1.62713
O         -3.70944       -0.33249        1.87922
O         -2.21353        1.20230        2.50016
C         -1.89107        1.96152       -0.65490
C         -3.12441        2.72360       -0.17960
C         -1.84723        1.88291       -2.17882
Rh         0.02143       -1.08357        0.26422
Cl        -0.07574       -1.42890       -2.09441
C          0.84900        2.32899        1.77256
O          1.45397        1.99356        0.52902
P          1.69765        0.46391        0.07700
C          3.13298        0.01835        1.18655
O          3.33623        0.52160        2.25900
O          3.89719       -0.94218        0.67266
C          2.67523        0.83178       -1.45927
C          1.77536        1.41627       -2.53952
C          3.83960        1.77283       -1.16269
C          0.14926       -3.31860        0.46442
C          1.42018       -2.67209        0.42693
H         -3.68631       -2.16207       -0.15558
H         -2.50371       -2.23281       -1.50681
H         -4.18173       -1.72569       -1.81021
H         -2.67024        1.15532        3.35993
H         -0.98402        2.45259       -0.29134
H         -4.02459        2.14522       -0.37798
H         -3.07185        2.94272        0.88433
H         -3.19790        3.66765       -0.71748
H         -2.82153        1.59600       -2.56560
H         -1.57270        2.84709       -2.60197
H         -1.12516        1.13803       -2.50469
H         -0.96981       -2.23930        0.45856
H          0.04501       -0.87565        1.77136
H          1.54802        2.15351        2.59028
H         -0.05825        1.74287        1.93919
H          0.60217        3.38953        1.71805
H          4.61433       -1.18853        1.28478
H          3.05274       -0.14307       -1.79030
H          2.36356        1.65709       -3.42323
H          1.01394        0.69593       -2.82505
H          1.29654        2.32546       -2.18219
H          4.40854        1.94228       -2.07539
H          3.46795        2.73012       -0.80630
H          4.51454        1.36482       -0.41388
H         -0.15365       -3.79135        1.39423
H         -0.16276       -3.85913       -0.42492
H          2.01061       -2.77388       -0.47895
H          2.00905       -2.67876        1.33943
