40
1695.log
C          1.04308       -0.41189        2.80600
N          1.47946        0.12264        1.52048
P          1.15813       -0.79628        0.14287
C          2.00868       -2.40538        0.41847
C          2.30468        0.00558       -1.05810
Br         4.14657        0.06749       -0.44377
Rh        -0.97931       -1.01188       -0.60644
Cl        -1.33209       -2.46024        1.27420
C         -3.01943        2.15685       -1.54397
N         -3.27065        1.54681       -0.24130
P         -2.02390        0.66827        0.50785
C         -2.93951        0.25351        2.03460
C         -1.06220        2.09589        1.18525
Br         0.15792        2.79954       -0.12171
C         -1.88483       -2.60805       -1.88071
C         -2.83401       -1.64771       -1.40310
H          0.94565        0.40518        3.52450
H          0.07588       -0.89810        2.67404
H          1.73803       -1.14905        3.21691
H          2.45078        0.42939        1.56585
H          2.11602       -2.93648       -0.52652
H          2.98874       -2.25125        0.87256
H          1.38260       -2.99932        1.08445
H          2.29487       -0.56743       -1.98622
H          2.00445        1.03282       -1.25763
H         -0.47071       -2.21494       -1.42117
H         -0.72045       -0.10961       -1.80030
H         -3.96388        2.50900       -1.95633
H         -2.55141        1.46933       -2.25743
H         -2.36190        3.01489       -1.41765
H         -4.07341        0.92364       -0.30895
H         -2.24650       -0.10207        2.79391
H         -3.64126       -0.55188        1.82440
H         -3.47579        1.13441        2.38633
H         -1.74607        2.89945        1.46339
H         -0.45554        1.78114        2.03209
H         -1.67720       -2.62495       -2.94700
H         -1.90762       -3.59490       -1.42692
H         -3.52491       -1.98627       -0.63402
H         -3.29705       -0.99925       -2.14354
