44
1698.log
C          4.89976        1.16296       -0.21969
C          3.67380        1.92826       -0.70167
P          2.12373        1.22145        0.02279
C          2.38065        1.58843        1.79578
C          0.98412        2.62678       -0.43807
O         -0.22247        2.14704        0.04634
Br        -1.72843        3.20336       -0.19814
Rh         1.52483       -0.85116       -0.70396
Cl         2.73612       -1.77042        1.14535
C          0.03043       -0.79002        3.22328
C         -0.81617       -0.29302        2.05634
P         -0.41313       -1.16877        0.48297
C         -0.79644       -2.89234        0.96500
C         -1.93226       -0.75167       -0.51596
O         -2.99248       -1.16854        0.26443
Br        -4.70833       -0.88178       -0.38263
C          2.59170       -2.29417       -2.04332
C          1.35219       -2.78959       -1.53750
H          5.10003        1.37199        0.82803
H          5.77694        1.44185       -0.79993
H          4.74488        0.08935       -0.32120
H          3.58327        1.85504       -1.78965
H          3.74746        2.98596       -0.43072
H          2.89139        2.54476        1.91090
H          1.42385        1.61072        2.31215
H          2.98388        0.78486        2.21624
H          1.29004        3.56574        0.04429
H          0.98456        2.75277       -1.52865
H          2.80961       -0.83477       -1.53751
H          0.76444       -0.25568       -1.87466
H         -0.31086       -1.76649        3.55834
H          1.07457       -0.88329        2.93127
H         -0.03895       -0.10202        4.06415
H         -0.65617        0.77335        1.88207
H         -1.87960       -0.45038        2.25721
H         -1.67710       -2.91232        1.60494
H          0.06489       -3.29167        1.49909
H         -0.97615       -3.49227        0.07425
H         -1.86968       -1.28417       -1.47527
H         -1.93436        0.32712       -0.70954
H          2.65823       -2.07047       -3.10415
H          3.50253       -2.71539       -1.62688
H          1.41280       -3.56796       -0.78266
H          0.53815       -2.92433       -2.24537
