34
170.log
C          1.09548        2.70398        0.90063
P          1.60414        1.10121        0.13731
Cl         2.91016        1.80437       -1.15447
C          2.67618        0.44348        1.49538
C          3.13365       -0.91624        1.01710
O          3.35116       -1.09897       -0.16014
Rh         0.11913       -0.44713       -0.63132
Cl         0.84840       -1.83264        1.20332
C         -1.49323        0.16695        2.47915
P         -1.69256        0.10709        0.65326
Cl        -3.27240       -1.07358        0.54568
C         -2.53910        1.75486        0.40303
C         -3.12812        1.77294       -0.97040
O         -4.30165        1.77057       -1.20919
C          0.39218       -2.19127       -2.02540
C         -0.91340       -2.10292       -1.48503
H          0.43539        2.53551        1.74747
H          0.57929        3.29932        0.14961
H          1.98331        3.24317        1.22956
H          3.54959        1.09381        1.61044
H          2.12527        0.39516        2.43497
H          3.44240       -1.63212        1.79283
H          1.28152       -0.92477       -1.48504
H         -0.30744        0.45261       -1.77027
H         -1.13138       -0.80863        2.80207
H         -2.44948        0.38232        2.95383
H         -0.75680        0.91756        2.75607
H         -3.31932        1.88167        1.15735
H         -1.77658        2.52891        0.49158
H         -2.36994        1.76113       -1.77681
H          0.53670       -1.96584       -3.07725
H          1.06226       -2.95253       -1.63684
H         -1.19430       -2.82299       -0.72089
H         -1.72773       -1.81998       -2.14703
