44
1700.log
C          0.95591       -0.42092        2.78872
P          1.54298       -0.60250        1.06549
C          2.84727       -1.87043        1.31759
C          2.59157        0.92094        0.93151
C          3.41500        0.92362       -0.35861
C          3.85126        2.25791       -0.67120
N          4.16102        3.33535       -0.89645
Rh         0.03180       -1.07628       -0.58666
Cl        -1.56143       -1.72583        1.08601
C         -2.60573        1.04306       -1.54389
P         -0.94401        0.99353       -0.78209
C         -0.07513        2.23274       -1.82020
C         -1.23716        2.04023        0.72049
C         -2.29010        1.46386        1.67620
C         -3.61911        1.84439        1.28679
N         -4.66883        2.17704        0.97603
C         -0.45442       -3.00360       -1.62067
C         -1.24813       -1.89956       -2.05655
H          1.80213       -0.34644        3.47128
H          0.35193       -1.29355        3.03293
H          0.32568        0.46096        2.87939
H          3.57479       -1.53722        2.05800
H          2.36845       -2.78479        1.66770
H          3.34685       -2.08216        0.37330
H          3.24289        0.99062        1.80742
H          1.92239        1.78666        0.93768
H          4.28777        0.27244       -0.26981
H          2.79384        0.55852       -1.18612
H          0.56857       -2.51313       -0.55312
H          1.03353       -0.72225       -1.66832
H         -3.27649        0.37956       -0.99999
H         -2.53294        0.70470       -2.57656
H         -3.00300        2.05762       -1.51515
H          0.88108        2.50313       -1.37573
H         -0.68696        3.12662       -1.93381
H          0.11130        1.79598       -2.79967
H         -1.53285        3.03928        0.38175
H         -0.28208        2.13364        1.24548
H         -2.12679        1.82971        2.69508
H         -2.22707        0.36592        1.68894
H          0.27014       -3.41783       -2.31608
H         -0.93848       -3.75239       -0.99999
H         -2.28916       -1.89233       -1.74736
H         -1.08939       -1.53747       -3.06922
