48
1709.log
C          2.24490        4.06726       -0.13879
O          2.18534        2.69711        0.25686
C          1.20988        1.96610       -0.23555
O          0.34186        2.34677       -0.97199
P          1.47812        0.20358        0.32929
C          2.14322        0.32626        2.02058
C          3.07866        0.08072       -0.61928
O          3.36532        0.73385       -1.58533
O          3.83104       -0.85212       -0.06600
C          5.06753       -1.15774       -0.70826
Rh         0.08423       -1.45831       -0.30401
Cl         0.16820       -2.25119        1.93076
C         -2.14137        1.09068       -2.49144
O         -3.35243        0.59559       -1.94356
C         -3.39143        0.01895       -0.76429
O         -4.42611       -0.39784       -0.31278
P         -1.83374       -0.27728        0.26933
C         -2.68369       -0.76100        1.81551
C         -1.46405        1.43728        0.85986
O         -0.51635        1.66677        1.57226
O         -2.37797        2.30466        0.48376
C         -2.21674        3.66197        0.89968
C         -0.33001       -3.53871       -0.99064
C         -1.54892       -2.93154       -0.76179
H          2.08572        4.15074       -1.21484
H          1.47970        4.63924        0.38982
H          3.23620        4.42173        0.13178
H          2.91118        1.09704        2.06962
H          1.32411        0.54859        2.70103
H          2.55442       -0.65372        2.26458
H          5.69312       -0.26489       -0.76319
H          4.88178       -1.52439       -1.71913
H          5.54238       -1.92537       -0.10307
H          1.38421       -2.16422       -0.57084
H          0.15180       -0.99369       -1.74838
H         -1.79846        1.97936       -1.96142
H         -1.35133        0.33533       -2.46704
H         -2.37197        1.34737       -3.52393
H         -3.42178       -0.00838        2.09420
H         -1.92637       -0.88842        2.59016
H         -3.19012       -1.71211        1.65281
H         -1.43255        4.13070        0.30284
H         -3.17215        4.14974        0.72443
H         -1.94635        3.70208        1.95593
H          0.02370       -3.68626       -2.00570
H          0.06801       -4.22524       -0.25046
H         -2.09131       -3.16913        0.14738
H         -2.16274       -2.60625       -1.59760
