48
171.log
C         -2.82593       -1.92904       -0.24880
P         -1.69365       -0.61795        0.34238
C         -2.94437        0.71228        0.75016
C         -3.84667        0.88733       -0.42136
O         -3.54270        1.33160       -1.49762
O         -5.09101        0.44889       -0.16349
C         -1.42465       -1.25520        2.07333
C         -0.53270       -0.29402        2.79182
O          0.63360       -0.49031        3.02815
O         -1.17039        0.81693        3.14005
Rh        -0.06636        0.22179       -1.03394
Cl         0.13076        2.03548        0.53004
C          3.27283       -0.88699       -1.41580
P          1.92004       -0.58616       -0.21549
C          2.83686        0.34148        1.09668
C          3.00573        1.77545        0.68309
O          3.24272        2.12649       -0.44592
O          2.96580        2.61743        1.71266
C          1.93383       -2.23480        0.67112
C          1.05283       -3.13276       -0.11525
O         -0.11449       -3.34045        0.10814
O          1.68167       -3.67613       -1.16266
C         -0.30634        1.72012       -2.69114
C          1.03497        1.31309       -2.51722
H         -3.69419       -2.00876        0.40435
H         -2.28352       -2.86944       -0.26863
H         -3.14377       -1.68423       -1.26052
H         -2.37570        1.62759        0.93211
H         -3.52755        0.43946        1.62940
H         -5.65755        0.56199       -0.94304
H         -2.39555       -1.32277        2.56571
H         -0.95540       -2.23483        1.99290
H         -0.54190        1.50376        3.41684
H         -1.28951        0.83595       -1.68647
H         -0.18235       -0.94975       -1.98541
H          4.12556       -1.35354       -0.92380
H          2.90955       -1.53632       -2.20960
H          3.57428        0.06818       -1.83946
H          2.29394        0.29045        2.04089
H          3.82549       -0.11008        1.21814
H          2.99900        3.53548        1.40136
H          2.95438       -2.61506        0.70008
H          1.53284       -2.07835        1.67242
H          1.05998       -4.19188       -1.70040
H         -0.84000        1.40593       -3.58218
H         -0.60596        2.69368       -2.31610
H          1.72680        2.00901       -2.05541
H          1.47863        0.68420       -3.28419
