44
1714.log
C          1.85303        1.74955        2.67463
C          2.24033        2.18943        1.26790
P          1.06714        1.56712       -0.00561
C          1.44695        2.75450       -1.28889
N          1.70462        3.49601       -2.12221
O         -0.24276        2.34371        0.64434
C         -1.45255        2.22508        0.06834
C         -2.53541        2.87506        0.86195
O         -1.58891        1.64453       -0.97574
Rh         1.04972       -0.57076       -0.79807
Cl         2.23391       -1.25384        1.17146
C         -0.28538       -3.33654        2.04289
C         -1.17796       -2.94099        0.87823
P         -0.85362       -1.24735        0.21559
C         -1.30358        0.28580        2.55924
N         -1.23359       -0.37777        1.59828
O         -2.17799       -1.13848       -0.73739
C         -3.31210       -0.41389       -0.61577
C         -3.99062       -0.26843       -1.93956
O         -3.69546        0.02583        0.42956
C          2.53795       -1.70582       -2.00441
C          1.38227       -2.46913       -1.64043
H          1.89294        0.66619        2.75709
H          0.84652        2.07914        2.92306
H          2.54808        2.17509        3.39518
H          3.22754        1.80159        1.00587
H          2.25525        3.28182        1.19218
H         -3.09770        3.55230        0.22324
H         -2.12307        3.40217        1.71589
H         -3.21704        2.09359        1.20056
H          2.38668       -0.26531       -1.49450
H          0.31452       -0.15054       -2.05025
H         -0.45717       -2.68282        2.89557
H          0.76516       -3.26239        1.77419
H         -0.49833       -4.36041        2.34364
H         -2.23256       -2.95113        1.17678
H         -1.05383       -3.62867        0.03668
H         -3.43232        0.47784       -2.50304
H         -5.01374        0.06659       -1.79991
H         -3.95772       -1.20582       -2.48723
H          2.67147       -1.45640       -3.05297
H          3.46550       -1.93769       -1.48831
H          1.52286       -3.23726       -0.88451
H          0.69635       -2.75496       -2.43373
