46
1717.log
C          5.16106        2.86868       -1.41496
C          3.90702        2.61381       -0.64212
O          3.03157        3.40931       -0.43078
C          3.82371        1.18543       -0.06797
O          4.72013        0.68014        0.55433
O          2.65243        0.64036       -0.33883
P          1.96027       -0.75710        0.32094
C          2.18107       -0.37773        2.10352
C          3.26879       -2.01902        0.08816
Rh        -0.06751       -1.19506       -0.60419
Cl         0.03404       -2.68853        1.27323
C         -6.12336        1.88244        0.04022
C         -4.89687        1.32906       -0.61093
O         -4.84037        0.83825       -1.70495
C         -3.63591        1.44551        0.27838
O         -3.54445        2.23678        1.18004
O         -2.71407        0.57467       -0.08926
P         -1.18531        0.37370        0.57058
C         -0.55662        2.09564        0.57270
C         -1.60478        0.08884        2.33264
C         -0.75257       -2.86907       -1.92698
C         -1.81203       -2.07114       -1.37989
H          5.14198        2.27281       -2.32671
H          6.01255        2.53861       -0.82272
H          5.24959        3.92156       -1.66768
H          3.24079       -0.23897        2.31279
H          1.79644       -1.21831        2.67456
H          1.63434        0.52712        2.36583
H          3.45683       -2.15086       -0.97701
H          4.18670       -1.72918        0.59528
H          2.88920       -2.95011        0.50395
H          0.55884       -2.29536       -1.48848
H          0.02637       -0.23461       -1.76918
H         -6.93200        1.97085       -0.67935
H         -6.42454        1.21224        0.84473
H         -5.88990        2.84503        0.48956
H          0.49758        2.08953        0.83820
H         -1.11628        2.72435        1.26193
H         -0.64170        2.48661       -0.43989
H         -2.15668       -0.84738        2.40789
H         -0.68410       -0.01684        2.89938
H         -2.19749        0.91302        2.72448
H         -0.58551       -2.81446       -2.99909
H         -0.62748       -3.87021       -1.52120
H         -2.41562       -2.52545       -0.59780
H         -2.38383       -1.44710       -2.05973
