46
1721.log
C         -0.63335        3.80878        0.63102
O         -1.58090        2.87495        0.17348
C         -2.46147        2.45269        1.19189
C         -3.31351        1.34428        0.61386
P         -2.25770        0.14473       -0.30325
C         -2.31212        0.80994       -2.01745
O         -3.35799       -1.00731       -0.44184
Rh        -0.40344       -0.72797        0.70701
Cl        -0.93695       -2.74406       -0.59752
C          5.65985        0.91940        0.01476
O          4.54050        0.80117        0.85712
C          3.30761        1.02817        0.21486
C          2.91400       -0.07510       -0.76826
P          1.07910       -0.15787       -1.00954
C          0.87469        1.42627       -1.94120
O          1.01729       -1.21515       -2.20611
C          0.37220       -2.03451        2.34047
C          1.40804       -1.77749        1.46343
H         -1.12663        4.67666        1.08437
H          0.03895        3.35654        1.36935
H         -0.05790        4.13656       -0.23294
H         -1.88200        2.06871        2.04357
H         -3.07524        3.29886        1.53914
H         -4.05220        1.73803       -0.08653
H         -3.82641        0.79635        1.40495
H         -3.35767        0.77264       -2.32190
H         -1.72711        0.16661       -2.67254
H         -1.94558        1.82777       -2.05426
H         -2.90480       -1.86509       -0.55202
H         -1.47916       -1.00105        1.73215
H         -0.08533        0.51513        1.48941
H          6.53562        0.81897        0.65276
H          5.68015        1.89906       -0.47926
H          5.68110        0.13612       -0.75092
H          2.57154        1.07976        1.02401
H          3.32517        2.00505       -0.29172
H          3.35559        0.07544       -1.75755
H          3.26363       -1.03773       -0.38881
H          1.83939        1.89487       -2.11710
H          0.24005        2.10405       -1.38140
H          0.41492        1.20213       -2.90020
H          0.40978       -1.94736       -1.94569
H          0.34011       -1.53550        3.30262
H         -0.15268       -2.98352        2.29574
H          1.69578       -2.54303        0.74858
H          2.19615       -1.09530        1.75873
