46
1723.log
C          4.59675        1.73179       -1.53955
C          3.36169        0.90653       -1.20978
C          2.68801        1.33096        0.05388
O          2.95888        2.29030        0.72604
P          1.30167        0.16827        0.57978
C          0.73484        0.97306        2.11179
C          2.45735       -1.12961        1.23942
O          3.09870       -1.84680        0.51916
O          2.52163       -1.12713        2.55738
Rh        -0.09902       -0.87702       -0.88994
Cl        -0.25843       -2.17179        1.14359
C         -1.00161        4.37238       -0.46487
C         -0.96365        2.87932       -0.75101
C         -1.98431        2.10192        0.01954
O         -2.79276        2.55379        0.78290
P         -1.99693        0.25961       -0.37183
C         -3.42473        0.26717       -1.52167
C         -2.89904       -0.35695        1.13232
O         -3.86147       -1.06684        1.07542
O         -2.31487        0.07095        2.23387
C          0.19676       -2.76742       -2.04308
C         -1.16041       -2.31912       -2.01688
H          5.33992        1.62961       -0.75268
H          5.03359        1.40159       -2.47804
H          4.33521        2.78388       -1.62275
H          2.61389        0.97905       -2.00666
H          3.60187       -0.15861       -1.10736
H         -0.03643        1.70765        1.88203
H          1.58438        1.46190        2.59028
H          0.31315        0.20833        2.76230
H          3.07209       -1.85797        2.88802
H          1.09894       -1.72977       -1.32234
H          0.10876       -0.00024       -2.11197
H         -0.25257        4.89089       -1.05690
H         -0.80449        4.55816        0.58778
H         -1.98230        4.77722       -0.70220
H         -1.14045        2.66870       -1.81168
H          0.02041        2.45453       -0.51652
H         -3.09684        0.56378       -2.51628
H         -4.19496        0.94623       -1.15482
H         -3.82433       -0.74710       -1.55313
H         -2.73000       -0.30163        3.03148
H          0.72167       -2.73913       -2.99345
H          0.45489       -3.62452       -1.42713
H         -1.85644       -2.87201       -1.39009
H         -1.59273       -1.96665       -2.94950
