34
1724.log
C          2.44084       -2.36119       -0.56542
P          1.46924       -0.96283        0.13583
N          1.89420       -1.11087        1.73757
C          2.57081        0.35188       -0.60243
O          2.36338        0.97119       -1.61286
O          3.69231        0.46252        0.10172
Rh        -0.76914       -0.97049       -0.31248
Cl        -1.19770       -0.00135        1.87054
C         -2.49031        2.10726       -0.46810
P         -0.89211        1.25474       -0.67724
N         -0.26039        2.19204       -1.93063
C          0.11415        1.98618        0.70012
O          1.23252        1.61371        0.98981
O         -0.45353        3.04215        1.25409
C         -2.29435       -2.55279       -0.01140
C         -2.81755       -1.33512       -0.57037
H          2.01976       -3.29197       -0.19094
H          2.37313       -2.34729       -1.65127
H          3.48271       -2.28381       -0.25501
H          1.23422       -0.61728        2.33421
H          2.84468       -0.81737        1.94090
H          4.26348        1.16455       -0.25413
H         -0.78222       -2.44141        0.15743
H         -0.51272       -1.39056       -1.74263
H         -3.16005        1.78512       -1.26500
H         -2.92114        1.84708        0.49558
H         -2.32134        3.18074       -0.53132
H         -0.79303        2.05971       -2.78578
H          0.70760        1.92612       -2.11653
H          0.09175        3.39493        1.97911
H         -2.29368       -3.43553       -0.64426
H         -2.54735       -2.76884        1.02353
H         -3.44855       -0.73498        0.08029
H         -3.17714       -1.37483       -1.59578
