40
1732.log
C         -3.06087       -1.58150       -1.79625
N         -3.00402       -1.43967       -0.35711
Br        -4.22048       -0.09554        0.21594
P         -1.42647       -1.10925        0.28521
C         -0.76393       -2.80654        0.01386
C         -1.85298       -1.23030        2.05614
Rh        -0.33264        0.72411       -0.52127
Cl        -0.54229        1.78085        1.60766
C          2.48614       -1.63617       -1.41292
N          2.88071       -0.43492       -0.70995
Br         4.66174       -0.63544       -0.03934
P          1.75392        0.32358        0.33203
C          1.85202       -0.59323        1.92572
C          2.71845        1.80953        0.77050
C         -1.10519        2.59231       -1.50639
C          0.31394        2.56397       -1.36181
H         -2.44113       -2.43410       -2.07233
H         -2.69618       -0.69742       -2.33567
H         -4.09057       -1.78224       -2.09424
H         -1.53750       -3.53302        0.26044
H         -0.44295       -2.93984       -1.01678
H          0.09670       -2.95997        0.66104
H         -0.96172       -1.50875        2.61541
H         -2.19503       -0.26369        2.42348
H         -2.62987       -1.98432        2.18571
H         -1.69492        1.27193       -0.96721
H         -0.14634        0.04869       -1.86928
H          3.17364       -1.80400       -2.24406
H          2.47229       -2.53205       -0.78255
H          1.48494       -1.46365       -1.80886
H          2.88721       -0.62946        2.26711
H          1.47113       -1.60799        1.81261
H          1.24487       -0.05810        2.65282
H          3.57530        1.54624        1.38964
H          3.05914        2.30013       -0.14072
H          2.06896        2.47939        1.33106
H         -1.51997        2.51845       -2.50794
H         -1.66175        3.25784       -0.85203
H          0.73878        3.23462       -0.62205
H          0.91416        2.46499       -2.26235
