50
1734.log
C          3.16466       -1.26587       -2.42791
C          3.55320       -2.12455       -1.23357
O          2.39895       -2.70429       -0.61367
C          1.67709       -1.90859        0.15568
O          1.96462       -0.79041        0.48466
O          0.58035       -2.53503        0.56194
P         -0.72566       -1.55468        0.95917
C         -0.25239       -0.91426        2.60964
C         -1.76006       -2.98189        1.43903
Rh        -1.56108       -0.17060       -0.64120
Cl        -3.30234       -0.09967        1.01445
C          4.97828        0.82895        1.18737
C          4.14476        1.68145        0.24569
O          2.87105        1.91859        0.85044
C          1.79614        1.76491        0.09936
O          1.76799        1.57328       -1.08226
O          0.71478        1.95158        0.85664
P         -0.78376        1.81698        0.14865
C         -1.64495        2.56374        1.57332
C         -0.74630        3.25540       -0.99441
C         -3.08372       -0.59751       -2.21134
C         -2.76302        0.79391       -2.07415
H          2.59691       -1.85674       -3.14203
H          2.55382       -0.42415       -2.10766
H          4.06188       -0.89027       -2.91243
H          4.15696       -2.98182       -1.53816
H          4.09700       -1.53106       -0.49255
H         -1.16593       -0.58359        3.09938
H          0.21425       -1.71227        3.18638
H          0.43381       -0.07626        2.50506
H         -1.91992       -3.61672        0.56944
H         -1.25594       -3.55286        2.21667
H         -2.71646       -2.61327        1.79807
H         -2.20555       -1.41104       -1.28309
H         -0.41696       -0.29202       -1.61937
H          5.15287        1.36038        2.11864
H          5.93300        0.59279        0.72557
H          4.44262       -0.08963        1.41069
H          4.61805        2.65443        0.07338
H          3.98872        1.18281       -0.71479
H         -2.68986        2.70308        1.30937
H         -1.59723        1.89000        2.42485
H         -1.18099        3.51548        1.82542
H         -0.19246        2.99325       -1.89225
H         -0.27007        4.10127       -0.50009
H         -1.76844        3.51045       -1.26253
H         -2.79469       -1.09212       -3.13453
H         -4.04883       -0.92138       -1.83051
H         -3.52205        1.42499       -1.61776
H         -2.23901        1.26919       -2.89866
