50
174.log
C          1.45058        2.56215       -2.42307
C          0.77394        2.65198       -1.05841
N          1.54405        2.09159        0.03284
P          1.70846        0.43312        0.25960
C          2.30607        0.45493        1.99539
N          3.24429        0.20137       -0.48156
C          3.90426       -1.08238       -0.32479
Rh         0.05617       -1.05398       -0.32680
Cl        -0.22067       -1.68115        1.96473
C         -0.83482        3.08743        2.39042
C         -1.29720        1.67695        2.05526
N         -1.83426        1.62230        0.70386
P         -1.88020        0.13788       -0.12383
C         -3.24320       -0.76148        0.74007
N         -2.75426        0.50444       -1.51314
C         -2.17653        1.10680       -2.69657
C          0.25613       -3.22988       -0.80744
C         -1.08728       -2.74239       -0.88247
H          2.44303        3.00947       -2.39143
H          1.54103        1.51984       -2.72245
H          0.85857        3.08380       -3.17111
H         -0.17271        2.10742       -1.07704
H          0.56733        3.70144       -0.81965
H          2.45295        2.53836        0.13426
H          3.33670        0.80698        2.00727
H          2.23703       -0.53819        2.43287
H          1.67682        1.12685        2.57279
H          3.16303        0.41983       -1.47206
H          3.42271       -1.89022       -0.89021
H          4.93780       -0.99140       -0.66342
H          3.90322       -1.35279        0.72960
H          1.19019       -2.08798       -0.41988
H          0.24551       -0.68493       -1.78700
H         -0.05670        3.39395        1.69774
H         -0.44118        3.11835        3.40323
H         -1.66460        3.78892        2.32054
H         -0.45511        0.98402        2.08470
H         -2.03400        1.34122        2.79741
H         -2.72779        2.10872        0.64469
H         -3.62803       -1.55263        0.10277
H         -4.04667       -0.06458        0.98454
H         -2.84836       -1.19293        1.65775
H         -3.67486        0.87975       -1.30773
H         -2.79810        0.86307       -3.56081
H         -2.08053        2.19577       -2.62975
H         -1.18784        0.67632       -2.84453
H          0.74571       -3.51559       -1.73518
H          0.49789       -3.88181        0.02773
H         -1.76180       -3.06975       -0.09806
H         -1.55176       -2.68043       -1.86309
