46
1756.log
C          3.45735       -0.22555       -2.27752
C          3.42273       -0.08043       -0.76236
P          1.77034        0.51316       -0.16491
C          1.69990        2.18482       -0.89685
C          2.23880        0.98245        1.58900
C          2.73054       -0.11333        2.46032
O          2.06548        2.12438        1.93601
Rh        -0.02911       -0.87700       -0.54359
Cl        -0.00480       -1.77190        1.68155
C         -3.44019       -0.78398        1.76680
C         -3.33075        0.06863        0.50756
P         -1.58807        0.62617        0.20225
C         -1.22528        1.53620        1.73834
C         -1.94268        2.04648       -0.94634
C         -2.69332        1.69915       -2.19620
O         -1.54651        3.15236       -0.67855
C         -0.16825       -2.98127       -1.27048
C         -1.44157       -2.35961       -1.06521
H          3.40601        0.74577       -2.76309
H          2.61271       -0.82385       -2.61871
H          4.37768       -0.71512       -2.59048
H          4.18921        0.62496       -0.42534
H          3.61096       -1.05191       -0.29592
H          0.87108        2.73893       -0.45784
H          2.63099        2.71700       -0.70360
H          1.52652        2.09375       -1.96784
H          3.01091        0.26426        3.44086
H          3.56603       -0.63591        2.00018
H          1.90963       -0.83569        2.55674
H          0.96170       -1.97049       -0.96162
H         -0.07874       -0.33714       -1.95979
H         -3.33875       -0.17174        2.65943
H         -2.65873       -1.54024        1.79204
H         -4.40709       -1.28275        1.80307
H         -3.96156        0.95995        0.59662
H         -3.65605       -0.50258       -0.36595
H         -2.08478        2.14458        2.02064
H         -0.35954        2.18046        1.58616
H         -0.99377        0.81381        2.52086
H         -3.75853        1.67124       -1.96916
H         -2.52208        2.44755       -2.96679
H         -2.38538        0.71425       -2.54222
H          0.12793       -3.20563       -2.29155
H          0.13337       -3.74130       -0.55494
H         -2.02652       -2.71109       -0.22068
H         -2.04104       -2.14896       -1.94812
