42
1761.log
C          1.26243        2.29023       -1.76868
P          1.78704        0.75149       -0.91375
C          3.33217        0.39826       -1.83600
C          2.56724        1.46242        0.62949
O          3.73684        1.31069        0.86095
C          1.69522        2.41012        1.46175
C          0.30947        2.10114        1.31784
N         -0.81244        1.90125        1.18477
Rh         0.57479       -1.12346       -0.33854
Cl         1.31614       -0.51934        1.87846
C         -2.24010       -0.70733        1.68792
P         -1.57248       -0.52579       -0.00487
C         -2.77561       -1.56353       -0.96045
C         -2.20297        1.11929       -0.61949
O         -1.71332        1.60486       -1.60070
C         -3.41150        1.74651        0.07199
C         -4.57287        0.90619        0.00723
N         -5.51240        0.25538       -0.04027
C          1.67928       -3.14846       -0.04650
C          0.22952       -3.07692        0.26273
H          0.99546        2.01566       -2.78815
H          0.37783        2.71268       -1.29869
H          2.07703        3.01590       -1.78176
H          3.07402       -0.04285       -2.79861
H          3.93439       -0.30758       -1.26366
H          3.90624        1.31230       -1.98687
H          1.88534        3.43365        1.11859
H          1.99014        2.32533        2.51133
H          1.99003       -2.04864       -0.41940
H          0.22417       -1.44495       -1.77361
H         -3.31386       -0.52567        1.70759
H         -2.04319       -1.73328        1.99786
H         -1.71568       -0.03648        2.36433
H         -3.38110       -2.14887       -0.27152
H         -2.22534       -2.23243       -1.61594
H         -3.43038       -0.94437       -1.57022
H         -3.63511        2.70021       -0.41586
H         -3.15535        1.92055        1.11873
H          1.94317       -3.80662       -0.87284
H          2.31908       -3.32128        0.81788
H         -0.01319       -3.19021        1.31906
H         -0.40992       -3.70243       -0.35902
