38
1765.log
C          3.10560        0.80558       -1.92030
C          2.71966        1.36310       -0.56995
F          3.86443        1.55367        0.19987
P          1.67821        0.14420        0.41998
C          1.55611        1.10620        1.98156
O          2.80334       -0.93549        0.77836
Rh        -0.10690       -0.95000       -0.49141
Cl        -0.42081       -1.68603        1.79759
C         -0.80210        2.98141       -0.81938
C         -2.03519        2.10454       -0.79760
F         -3.07689        2.76814       -0.18196
P         -1.75680        0.50427        0.11606
C         -3.48771       -0.10534        0.16116
O         -1.58138        1.08775        1.58970
C         -0.23587       -3.03532       -1.26409
C         -1.49530       -2.36543       -1.21578
H          3.56712       -0.17305       -1.79517
H          2.21090        0.69321       -2.52686
H          3.80714        1.46651       -2.42521
H          2.24274        2.34388       -0.64391
H          0.83784        1.91391        1.88089
H          2.53502        1.51148        2.23945
H          1.22367        0.42526        2.76408
H          3.56484       -0.55909        1.23897
H          0.91982       -2.03457       -0.82137
H          0.04568       -0.37817       -1.88397
H         -0.98998        3.89757       -1.37555
H         -0.52355        3.24057        0.19994
H          0.00633        2.42623       -1.29041
H         -2.37722        1.86854       -1.81364
H         -4.11700        0.68649        0.56606
H         -3.82514       -0.39150       -0.83111
H         -3.52466       -0.97017        0.82260
H         -1.25415        0.34264        2.13357
H          0.18563       -3.26242       -2.23851
H         -0.04347       -3.80126       -0.51773
H         -2.19283       -2.68610       -0.44694
H         -1.97044       -2.11734       -2.16074
