44
1781.log
C         -1.61332       -2.62901        0.47130
P         -0.98235       -0.95733        0.91673
C         -1.52898       -0.89758        2.66697
N         -2.15081        0.10314        0.26020
C         -2.27945        0.15080       -1.18562
C         -3.42851       -0.66456       -1.67914
O         -4.17526       -1.28179       -0.96538
Rh         1.22001       -0.69454        0.37938
Cl         0.60327       -1.32557       -1.86716
C          1.69011        1.84407       -2.03109
P          1.34764        1.49319       -0.27367
C          2.68866        2.45651        0.53353
N          0.09061        2.60204       -0.04388
C         -0.68671        2.49744        1.17428
C         -2.16268        2.42231        0.86659
O         -2.63007        2.78363       -0.18713
C          2.82745       -2.24249        0.28304
C          3.25621       -0.94029       -0.12862
H         -1.13498       -3.37198        1.10778
H         -2.69557       -2.67152        0.59405
H         -1.35720       -2.83642       -0.56737
H         -0.90958       -1.58642        3.23848
H         -1.40914        0.10044        3.08036
H         -2.57266       -1.20159        2.74239
H         -3.07060       -0.12627        0.64655
H         -1.35160       -0.19919       -1.66607
H         -2.45686        1.19147       -1.50260
H         -3.55381       -0.64667       -2.77559
H          1.35280       -2.18083        0.75958
H          1.58668       -0.30542        1.79766
H          2.68361        1.47730       -2.28180
H          0.96423        1.32671       -2.65583
H          1.63583        2.91956       -2.19304
H          2.64101        3.48530        0.18136
H          2.54836        2.43283        1.61223
H          3.65716        2.02358        0.29699
H         -0.55118        2.63629       -0.83644
H         -0.53939        3.39994        1.78649
H         -0.36662        1.63365        1.76944
H         -2.79994        2.18070        1.73318
H          3.23941       -2.64213        1.20523
H          2.69525       -2.99222       -0.49231
H          3.44497       -0.79964       -1.18973
H          3.97174       -0.43069        0.51106
