40
1795.log
C         -1.31288        2.85771       -0.54425
C         -1.57310        1.52777       -1.24331
P         -1.62797        0.12559       -0.05011
Br        -2.91141       -1.26833       -1.15699
C         -2.88427        0.71168        1.23030
N         -4.19504        1.00000        0.65539
O         -5.10467        0.27315        0.96051
O         -4.26560        1.94245       -0.09942
Rh         0.18007       -0.88849        0.92496
Cl         0.58317       -1.49014       -1.36383
C          1.43464        2.59525        2.42429
C          2.50989        1.60959        1.99333
P          1.93831        0.53568        0.59183
Br         1.95443        2.02497       -1.01717
C          3.63418       -0.18920        0.24059
N          3.64327       -1.05112       -0.95491
O          3.65585       -0.49422       -2.01915
O          3.68345       -2.24104       -0.76366
C          0.32599       -3.04846        1.62245
C          1.56199       -2.36858        1.68209
H         -0.86142        3.55973       -1.23991
H         -2.24769        3.28174       -0.18560
H         -0.63190        2.73477        0.29837
H         -0.77255        1.28607       -1.94998
H         -2.51448        1.56724       -1.79870
H         -2.99319       -0.06897        1.98852
H         -2.47276        1.61986        1.67573
H         -0.84845       -1.97805        1.18835
H         -0.09951       -0.38024        2.33637
H          0.50719        2.06645        2.64665
H          1.74780        3.12660        3.31987
H          1.24931        3.32947        1.64166
H          2.74225        0.93166        2.81935
H          3.42047        2.14453        1.70947
H          4.32612        0.64074        0.06116
H          3.94449       -0.77983        1.10629
H         -0.17440       -3.31092        2.54871
H          0.16608       -3.74661        0.80683
H          2.29985       -2.63963        0.93305
H          1.96663       -2.13116        2.66284
