46
1797.log
C          1.55896       -0.65802        2.62198
P          1.89931       -0.99170        0.85737
C          2.69424       -2.63784        0.99080
C          3.47291        0.00588        0.63016
C          3.11812        1.44948        0.62777
O          2.81343        2.05669        1.62646
C          3.07237        2.10955       -0.73477
Cl         4.63333        1.92783       -1.57573
Rh         0.19562       -0.94213       -0.67781
Cl        -0.65497       -2.52909        0.89119
C         -2.01674        0.30153        1.76903
P         -1.09590        0.70714        0.24272
C         -0.34394        2.30595        0.71697
C         -2.43699        1.38077       -0.89301
C         -3.47742        2.10182       -0.11792
O         -3.32323        3.20431        0.35262
C         -4.82256        1.41257        0.07460
Cl        -4.81432       -0.35038       -0.14689
C         -0.23559       -2.43378       -2.29624
C         -1.28755       -1.49263       -2.09019
H          2.44485       -0.88917        3.21312
H          1.29165        0.38672        2.76790
H          0.73522       -1.30037        2.92903
H          1.91803       -3.36818        1.21383
H          3.43913       -2.63881        1.78614
H          3.16674       -2.89721        0.04371
H          4.11852       -0.22618        1.47910
H          3.93690       -0.30276       -0.30609
H          2.86038        3.17456       -0.64348
H          2.31302        1.60605       -1.34151
H          0.97951       -2.05676       -1.37841
H          0.79515        0.05701       -1.65243
H         -1.29334        0.00993        2.52862
H         -2.58526        1.16276        2.11673
H         -2.67073       -0.54895        1.58670
H         -1.11883        2.98947        1.06286
H          0.39624        2.16152        1.50086
H          0.15486        2.73505       -0.15011
H         -1.90575        2.07194       -1.55110
H         -2.86153        0.56232       -1.46829
H         -5.51532        1.82949       -0.66120
H         -5.20555        1.62863        1.07323
H          0.31382       -2.38650       -3.23187
H         -0.38605       -3.44388       -1.92594
H         -2.18585       -1.85739       -1.59825
H         -1.47519       -0.77704       -2.88648
