42
1799.log
C          0.29162        2.31460        1.31414
P          0.95773        1.46599       -0.17765
C          0.52265        2.67516       -1.47575
O          2.52252        1.89808       -0.06098
C          3.48996        1.02975        0.48916
N          3.98953        0.15736       -0.54754
Rh         0.44802       -0.74389       -0.43713
Cl         1.02196       -0.95295        1.89076
C         -2.25175       -0.60853        1.86384
P         -1.73727       -0.47954        0.10666
C         -2.95639       -1.63853       -0.63885
O         -2.26282        1.00320       -0.35039
C         -3.46023        1.62217        0.04732
N         -4.61422        0.93773       -0.48755
C          1.66686       -2.54382       -0.83472
C          0.28608       -2.83561       -0.59043
H          0.74650        3.30192        1.38394
H         -0.78807        2.39989        1.23855
H          0.54991        1.72730        2.19387
H          0.89166        3.66034       -1.19810
H          0.97858        2.36254       -2.41146
H         -0.55697        2.68649       -1.59083
H          3.05999        0.40676        1.28253
H          4.25845        1.69452        0.92575
H          4.65127       -0.50622       -0.16392
H          4.44323        0.69551       -1.27819
H          1.90174       -0.99439       -0.82366
H          0.10795       -0.57400       -1.90298
H         -1.78022        0.18036        2.44665
H         -1.88811       -1.56177        2.23914
H         -3.33635       -0.56529        1.95338
H         -3.96742       -1.35935       -0.35165
H         -2.73078       -2.64526       -0.29717
H         -2.85591       -1.60154       -1.72110
H         -3.35987        2.66704       -0.30627
H         -3.55574        1.63555        1.14115
H         -5.46375        1.42553       -0.22719
H         -4.55725        0.90997       -1.50068
H          2.05313       -2.71512       -1.83518
H          2.37489       -2.79389       -0.04963
H          0.04442       -3.31045        0.35799
H         -0.30008       -3.21469       -1.42401
