50
1801.log
C          6.04124       -0.36126       -1.33919
C          5.25118       -0.51759       -0.04769
C          3.86594        0.06633       -0.15996
O          3.37829        0.53485       -1.15204
O          3.20014        0.01988        0.99888
P          1.57230        0.45935        0.97205
C          1.46972        0.47840        2.78927
O          1.65730        2.05417        0.78104
C          1.52961        2.71445       -0.46881
Rh         0.20239       -0.86985       -0.28190
Cl        -1.02449       -1.25862        1.75017
C         -4.63642       -1.69029        0.51595
C         -5.05487       -0.25190        0.24634
C         -4.00894        0.58443       -0.45163
O         -4.20464        1.69062       -0.87403
O         -2.82191       -0.04003       -0.53486
P         -1.35845        0.69391       -0.78569
C         -1.54969        1.42545       -2.45130
O         -1.49911        2.07199        0.02760
C         -1.64890        2.12181        1.44338
C          0.20734       -3.07005       -0.64332
C         -0.89523       -2.37663       -1.24344
H          7.02100       -0.82089       -1.24094
H          5.50988       -0.83179       -2.16176
H          6.16822        0.69089       -1.57915
H          5.75608       -0.02871        0.78817
H          5.13860       -1.57238        0.21493
H          2.17728        1.21356        3.16621
H          1.72013       -0.51390        3.15595
H          0.46064        0.71991        3.10403
H          1.18422        2.02433       -1.24101
H          2.50231        3.11181       -0.76254
H          0.81289        3.52769       -0.34864
H          1.13025       -2.05944        0.03184
H          0.94929       -0.61045       -1.56998
H         -5.41814       -2.20472        1.06947
H         -3.72040       -1.71853        1.10124
H         -4.46864       -2.22070       -0.41861
H         -5.96604       -0.20786       -0.35528
H         -5.27076        0.25808        1.18995
H         -0.62408        1.90382       -2.75283
H         -2.35815        2.15135       -2.42783
H         -1.77889        0.62314       -3.14864
H         -0.79529        2.65437        1.86620
H         -2.56723        2.67071        1.65894
H         -1.71333        1.12224        1.87956
H          0.94815       -3.51037       -1.30505
H         -0.00939       -3.67885        0.23080
H         -1.87055       -2.51868       -0.78937
H         -0.92339       -2.32484       -2.32888
