44
1808.log
C          4.39571        1.47221       -0.07796
C          3.32148        0.51744       -0.56490
N          3.70868       -0.88011       -0.35166
O          4.40816       -1.13174        0.59541
O          3.27927       -1.68125       -1.14841
P          1.65586        0.66190        0.29465
C          2.16660        1.08640        2.00084
N          1.37192        2.39726       -0.23990
O          0.62293        2.99544        0.51702
O          1.74258        2.79413       -1.31918
Rh         0.00484       -0.65083       -0.57545
Cl         1.25653       -1.64585        1.25306
C         -2.32956        2.66701       -0.49332
C         -2.94720        1.35831       -0.04307
N         -3.55717        0.65468       -1.18046
O         -4.12786        1.27899       -2.02656
O         -3.43116       -0.55364       -1.15463
P         -1.74474        0.12020        0.66529
C         -1.42629        0.96179        2.26583
N         -2.94360       -1.03529        1.40601
O         -4.02040       -0.58380        1.71400
O         -2.54089       -2.14848        1.59933
C          0.19339       -2.52004       -1.86833
C         -1.03349       -2.43944       -1.17739
H          4.69167        1.25088        0.94397
H          5.27642        1.37179       -0.71086
H          4.05332        2.50174       -0.14684
H          3.11264        0.65221       -1.63371
H          2.51066        2.11771        2.05837
H          2.95999        0.39219        2.27958
H          1.34019        0.93913        2.69001
H          1.03526       -1.19403       -1.55095
H         -0.48659        0.17314       -1.74248
H         -1.91933        3.21339        0.35134
H         -3.08177        3.28296       -0.98172
H         -1.52534        2.48123       -1.20462
H         -3.75049        1.53383        0.68708
H         -0.81136        1.84179        2.07799
H         -2.36268        1.25426        2.74287
H         -0.88707        0.27387        2.91810
H          0.19266       -2.38162       -2.94436
H          0.95676       -3.20255       -1.50653
H         -1.17509       -3.06082       -0.29687
H         -1.93892       -2.24089       -1.74020
