48
1811.log
C         -3.98888       -0.49612       -2.01625
N         -4.10316       -0.23283       -0.59956
C         -4.29248        1.01138       -0.21731
N         -4.54946        2.08228        0.11143
C         -3.50505       -1.16643        0.31359
P         -1.63642       -1.34676        0.22428
C         -1.47127       -2.68823       -1.02897
C         -1.44227       -2.32472        1.75767
Rh        -0.49686        0.61299        0.00750
Cl         0.26777        0.46343        2.26811
C          4.95023        1.10305       -1.43834
N          4.27698        0.32683       -0.41892
C          5.00260       -0.48643        0.31402
N          5.63760       -1.24316        0.90131
C          3.00240        0.80531        0.06780
P          1.56365       -0.26817       -0.44731
C          2.03016       -0.70677       -2.16853
C          2.04603       -1.80224        0.42497
C         -1.12132        2.73149        0.38531
C          0.22156        2.61849       -0.06124
H         -4.63540        0.19056       -2.56106
H         -4.31049       -1.52058       -2.21145
H         -2.95855       -0.36302       -2.36492
H         -3.72558       -0.83697        1.33551
H         -3.96050       -2.15447        0.15676
H         -1.59583       -2.28956       -2.03279
H         -0.47409       -3.11825       -0.95381
H         -2.20934       -3.46920       -0.84754
H         -1.55456       -1.65732        2.61079
H         -2.18440       -3.12244        1.79864
H         -0.44051       -2.74753        1.79296
H         -1.80228        1.25879        0.45054
H         -0.89387        0.71000       -1.45692
H          5.83710        0.56660       -1.77378
H          4.28076        1.24812       -2.28713
H          5.25756        2.08463       -1.05897
H          2.97308        0.83904        1.16361
H          2.84441        1.81709       -0.31378
H          3.04381       -1.10261       -2.20860
H          1.33248       -1.46145       -2.52825
H          1.93926        0.17048       -2.80646
H          1.87527       -1.65323        1.49058
H          1.44091       -2.63677        0.07433
H          3.09896       -2.02168        0.25137
H         -1.86826        3.15217       -0.28038
H         -1.28875        2.96260        1.43283
H          0.99398        2.80607        0.67894
H          0.45904        2.98559       -1.05693
