50
1820.log
C         -1.51784        2.96916        1.79146
N         -1.14757        1.62628        2.22094
P         -1.19075        0.37430        1.08383
C         -0.69716       -0.96408        2.22784
C         -3.03001        0.13856        1.04432
C         -3.44354       -1.12316        0.30038
C         -4.92897       -1.20376        0.11815
O         -5.59814       -2.18273        0.28971
Rh        -0.12496        0.70715       -0.92984
Cl         1.45173        2.02187        0.33091
C         -0.29070       -3.19690       -0.71899
N          0.89717       -2.50669       -0.24445
P          1.33268       -1.04855       -0.98780
C          1.87809       -1.56139       -2.68206
C          3.00227       -0.85255       -0.23026
C          2.94327       -0.74543        1.28818
C          4.29386       -0.55784        1.89926
O          4.68455       -1.09739        2.89770
C         -0.30806        2.45715       -2.31696
C          0.68584        1.50691       -2.71487
H         -2.49279        2.94144        1.30682
H         -1.58663        3.60601        2.67359
H         -0.78779        3.40708        1.10346
H         -0.20247        1.66310        2.60155
H          0.32386       -0.78538        2.55779
H         -1.36589       -0.95250        3.08721
H         -0.73358       -1.92344        1.72127
H         -3.46856        1.00790        0.54585
H         -3.37785        0.12191        2.08028
H         -3.09045       -2.02232        0.80678
H         -2.99921       -1.08941       -0.70208
H         -5.38681       -0.24768       -0.20852
H         -1.01770        1.95460       -1.06121
H         -1.13994       -0.09406       -1.72057
H         -0.62046       -3.91413        0.03495
H         -1.07206       -2.45413       -0.87348
H         -0.13291       -3.73287       -1.66009
H          1.68740       -3.14446       -0.17853
H          0.99965       -1.74556       -3.29829
H          2.46902       -0.77326       -3.14088
H          2.47435       -2.47241       -2.61889
H          3.43335        0.06211       -0.64580
H          3.62328       -1.70089       -0.53762
H          2.36766        0.15959        1.52683
H          2.44838       -1.61090        1.73202
H          4.93377        0.16032        1.34908
H         -1.19243        2.55411       -2.94071
H          0.04252        3.40462       -1.91636
H          1.72433        1.80716       -2.60118
H          0.49383        0.93729       -3.61986
