46
1838.log
C          0.72218       -3.73500        0.44004
P          0.58938       -1.93464        0.77582
C          0.46481       -1.92314        2.60110
C         -1.17409       -1.48633        0.36240
O         -1.58886       -0.45797        0.84090
C         -2.02177       -2.45556       -0.42828
C         -3.15659       -1.76600       -1.16867
Cl        -4.40386       -1.17061       -0.04451
Rh         1.86048       -0.44726       -0.38300
Cl        -0.05646       -0.54844       -1.86627
C          1.25277        3.04772       -0.06977
P          1.15328        1.41907        0.77822
C          2.23018        1.76936        2.21988
C         -0.46764        1.60007        1.72532
O         -0.46588        1.23686        2.87245
C         -1.61132        2.36188        1.10829
C         -1.88799        2.01268       -0.34588
Cl        -2.11251        3.48043       -1.33854
C          3.17470       -0.66122       -2.17593
C          2.95824        0.69723       -1.76879
H          1.67449       -4.07511        0.84702
H          0.72005       -3.92139       -0.63289
H         -0.09054       -4.28217        0.91717
H          0.13932       -0.93460        2.92517
H          1.44769       -2.13541        3.02032
H         -0.25082       -2.67339        2.93832
H         -1.39406       -2.97261       -1.15522
H         -2.42225       -3.19001        0.27775
H         -3.65242       -2.46001       -1.84686
H         -2.77429       -0.90888       -1.72304
H          2.47850       -1.58603       -1.21451
H          3.04187       -0.53283        0.55304
H          0.94520        3.84367        0.60811
H          2.29184        3.20589       -0.35685
H          0.63649        3.07226       -0.96525
H          2.17181        0.93806        2.91933
H          1.91775        2.68548        2.71988
H          3.25502        1.86511        1.86573
H         -1.34774        3.42061        1.19419
H         -2.49534        2.19126        1.72532
H         -1.06410        1.45260       -0.79286
H         -2.80107        1.42938       -0.44025
H          4.17575       -1.06742       -2.06135
H          2.67805       -0.98963       -3.08532
H          2.31898        1.30263       -2.40677
H          3.81381        1.23808       -1.37211
