44
1841.log
C         -0.19944        3.57972       -1.80677
C         -0.88303        2.24487       -2.06519
C         -1.89345        1.90569       -0.96385
P         -1.59577        0.37541        0.00342
N         -3.15707       -0.53790       -0.38817
O         -4.04233        0.03126       -0.96923
O         -3.19104       -1.66951        0.03585
N         -2.39893        0.94186        1.60279
O         -2.14845        0.20149        2.52178
O         -3.11725        1.90575        1.61162
Rh        -0.03394       -1.37242        0.21826
Cl        -0.78032       -0.98849       -2.05113
C          3.98263       -1.58837       -1.06476
C          4.41004       -0.45123       -0.14861
C          3.39541       -0.22536        0.96912
P          1.69195        0.02409        0.31356
N          2.43095        2.28214       -0.90959
O          1.89154        1.03789       -0.98310
O          2.77345        2.62106        0.17530
N          1.10113        1.26513        1.52158
O          1.62702        1.35629        2.59452
O          0.09405        1.85222        1.15329
C         -0.57959       -3.60582        0.08021
C          0.84004       -3.23256       -0.05441
H         -0.92576        4.38930       -1.80807
H          0.29257        3.57769       -0.83583
H          0.54452        3.78154       -2.57304
H         -1.39495        2.28320       -3.02741
H         -0.12679        1.46337       -2.14635
H         -2.90264        1.78952       -1.37461
H         -1.91885        2.70886       -0.22209
H         -1.16554       -2.57576        0.30739
H          0.16273       -1.50175        1.71327
H          3.01956       -1.35575       -1.52544
H          4.71312       -1.73891       -1.85529
H          3.88249       -2.51387       -0.50288
H          4.53559        0.46218       -0.73558
H          5.37758       -0.67952        0.30310
H          3.66763        0.62942        1.59617
H          3.33012       -1.10879        1.60784
H         -0.82298       -4.22377        0.94165
H         -1.05249       -3.97560       -0.82806
H          1.26580       -3.35542       -1.04980
H          1.50437       -3.59721        0.72663
