42
1844.log
C         -2.31920       -1.34497        1.93510
P         -1.49789       -0.38462        0.60089
Cl        -1.00623        1.25882        1.57411
C         -2.94013        0.19350       -0.40055
C         -3.89839        1.14307        0.30752
C         -5.23732        1.17896       -0.39299
O         -5.68335        0.31384       -1.09574
O         -5.90462        2.30314       -0.11415
Rh         0.17517       -1.33656       -0.61727
Cl         0.18856        0.80651       -1.68995
C          3.32789       -1.83187        0.87286
P          1.82468       -0.77493        0.83515
Cl         1.29680       -0.90455        2.73857
C          2.58889        0.90375        0.84318
C          3.25846        1.23049       -0.48395
C          3.87305        2.60346       -0.45986
O          3.77314        3.40517        0.42893
O          4.57542        2.84604       -1.57567
C          0.20706       -2.27545       -2.64530
C          1.50294       -2.12015       -2.05708
H         -1.55804       -1.69145        2.63161
H         -3.04874       -0.74237        2.47278
H         -2.80305       -2.20846        1.48437
H         -3.47819       -0.70590       -0.71847
H         -2.53266        0.67236       -1.29500
H         -4.09613        0.81653        1.33263
H         -3.50293        2.15762        0.35743
H         -6.76876        2.30881       -0.55585
H         -0.86099       -1.79942       -1.65463
H          0.06872       -2.68446        0.07540
H          4.01045       -1.48464        1.64794
H          3.02227       -2.85499        1.08513
H          3.81904       -1.80801       -0.09678
H          1.80232        1.63884        1.03347
H          3.30566        0.95322        1.66962
H          4.03496        0.51087       -0.74892
H          2.50602        1.22338       -1.28206
H          4.93371        3.74729       -1.55957
H         -0.17426       -3.28436       -2.77055
H         -0.05040       -1.60750       -3.46228
H          2.14656       -1.35636       -2.48685
H          2.03032       -3.02604       -1.76982
