48
1858.log
C         -3.13440        1.61858        0.72702
P         -1.89286        1.01786       -0.48523
C         -2.71878        1.39498       -2.07040
O         -2.21633       -0.57808       -0.54560
C         -2.00548       -1.43400        0.56519
C         -2.91027       -2.64429        0.37603
N         -4.33041       -2.22487        0.31748
O         -4.68096       -1.32492        1.03691
O         -5.04182       -2.82716       -0.44654
Rh         0.25694        1.69124       -0.09799
Cl        -0.06470        0.63037        2.03282
C          0.47813       -0.97889       -2.42396
P          1.27314       -0.12161       -1.02176
C          2.94670        0.14410       -1.73735
O          1.47492       -1.47557       -0.12415
C          2.09514       -1.44749        1.14712
C          3.21913       -2.48740        1.18185
N          4.30586       -2.04102        0.29591
O          4.52746       -2.69469       -0.69313
O          4.88209       -1.02604        0.60702
C          1.05315        3.48305        0.97272
C          2.06795        2.56146        0.55443
H         -3.33383        2.66909        0.52675
H         -4.05071        1.03527        0.63828
H         -2.73676        1.52472        1.73645
H         -2.16514        0.93843       -2.88661
H         -2.72570        2.47277       -2.20905
H         -3.73616        1.01022       -2.05529
H         -0.95992       -1.75528        0.59789
H         -2.24551       -0.92041        1.50027
H         -2.69377       -3.16910       -0.55617
H         -2.79926       -3.32774        1.22079
H         -0.31400        2.98708        0.50378
H          0.37424        2.37470       -1.44651
H         -0.54166       -1.25525       -2.17142
H          0.46213       -0.29505       -3.26911
H          1.05431       -1.86815       -2.67204
H          3.31041       -0.78032       -2.18498
H          3.64608        0.48244       -0.97421
H          2.86861        0.91680       -2.49715
H          2.50537       -0.45821        1.37273
H          1.34992       -1.68893        1.91153
H          3.60637       -2.55922        2.19897
H          2.86097       -3.45238        0.82094
H          1.01778        4.45104        0.48160
H          0.83354        3.52897        2.03613
H          2.56560        1.99750        1.34006
H          2.74177        2.88757       -0.23306
