28
186.log
C          2.55383        0.99919       -2.11935
P          1.75743        0.39465       -0.56951
C          1.51609        1.96106        0.22747
N          1.28816        2.98846        0.68041
C          3.22085       -0.11151        0.29408
N          4.18127       -0.45270        0.81466
Rh        -0.04450       -0.95066       -0.38118
Cl         0.71594       -0.39921        1.85309
C         -1.59826        2.15876       -1.39588
P         -1.57877        0.69863       -0.28642
C         -1.82874        1.51397        1.27633
N         -2.01339        2.02711        2.28123
C         -3.27952        0.20555       -0.45695
N         -4.36332       -0.14094       -0.57988
C         -0.21349       -3.13190        0.14567
C         -1.44559       -2.41680        0.24645
H          3.37441        1.68170       -1.89178
H          2.93548        0.14029       -2.67271
H          1.81165        1.50739       -2.73604
H          0.86464       -2.19506       -0.39437
H         -0.35331       -1.19168       -1.85480
H         -1.61516        1.80757       -2.42880
H         -0.69730        2.75098       -1.22769
H         -2.47869        2.77147       -1.19710
H         -0.12744       -3.88071       -0.63621
H          0.28287       -3.40513        1.07324
H         -1.81688       -2.19773        1.24568
H         -2.22882       -2.64511       -0.47172
