34
1861.log
C          1.68937        2.42927       -1.12414
P          1.42217        1.04795        0.04290
N          1.22872        1.89143        1.49275
C          3.17980        0.55010        0.34258
F          3.69944        0.05193       -0.82372
Rh         0.05330       -0.70440       -0.45156
Cl         0.61699       -1.33740        1.83408
C         -3.47075       -0.46137        0.04068
P         -1.82227        0.29870        0.32407
N         -1.76891        0.66551        1.96376
C         -2.24296        2.00769       -0.28826
F         -2.58868        1.95278       -1.60937
C          0.49917       -2.77058       -1.15187
C         -0.87633       -2.55984       -0.81123
H          2.23022        2.04113       -1.98564
H          2.26374        3.21408       -0.63466
H          0.73427        2.81922       -1.46913
H          0.31513        2.33534        1.54758
H          1.27557        1.22002        2.25979
H          3.23573       -0.24005        1.09921
H          3.78076        1.41631        0.64187
H          1.27704       -1.45988       -0.98856
H         -0.24922       -0.23574       -1.85472
H         -4.24339        0.12632        0.53859
H         -3.47270       -1.47890        0.42852
H         -3.66314       -0.48821       -1.02980
H         -2.66422        0.63524        2.43984
H         -1.10718        0.03413        2.42399
H         -1.38658        2.68540       -0.19715
H         -3.09985        2.41721        0.26188
H          0.74248       -2.93413       -2.19759
H          1.09441       -3.37588       -0.47272
H         -1.23299       -3.03295        0.10136
H         -1.60101       -2.57695       -1.62072
