46
1877.log
C          3.58429       -0.45162        1.94555
C          3.25246       -0.72500        0.48422
P          1.76848        0.18238       -0.15933
F          1.56770        1.21916        1.09915
N          2.47523        1.21797       -1.26896
C          1.71686        1.72907       -2.39145
C          3.47308        2.16148       -0.80116
Rh        -0.12369       -1.01882       -0.57547
Cl         0.34422       -1.68010        1.66549
C         -2.33121        2.18746        2.39161
C         -1.53811        0.93800        2.04181
P         -1.40017        0.66298        0.23253
F         -0.79768        2.11782       -0.16591
N         -2.97500        1.01139       -0.29041
C         -3.07496        1.26387       -1.71654
C         -4.01187        0.10396        0.16409
C         -0.46224       -3.15537       -1.07370
C         -1.66238       -2.44508       -0.73162
H          3.81745        0.59707        2.11662
H          2.73487       -0.72103        2.56863
H          4.44078       -1.05171        2.24755
H          3.03011       -1.78777        0.36849
H          4.09187       -0.48650       -0.17385
H          1.24365        2.68954       -2.16221
H          2.38550        1.86176       -3.24529
H          0.94249        1.01077       -2.65339
H          4.20421        2.33654       -1.59431
H          3.98648        1.76653        0.07173
H          3.01797        3.11974       -0.52879
H          0.72866       -2.18202       -1.11389
H         -0.38600       -0.57860       -2.00305
H         -3.36793        2.09937        2.07896
H         -2.30423        2.35199        3.46703
H         -1.89889        3.05463        1.89887
H         -0.50779        1.02214        2.39500
H         -1.95366        0.04001        2.50177
H         -2.98822        0.34718       -2.31230
H         -4.04089        1.72737       -1.92284
H         -2.28456        1.95009       -2.01353
H         -3.83004       -0.18379        1.19706
H         -4.97489        0.61680        0.10498
H         -4.06867       -0.80374       -0.44629
H         -0.36247       -3.51065       -2.09526
H         -0.07197       -3.84859       -0.33379
H         -2.10868       -2.67822        0.23229
H         -2.39264       -2.30953       -1.52554
