42
1900.log
C          3.47803       -1.81726        0.00488
C          3.34894       -0.37628        0.47044
P          1.70722        0.42656        0.14584
C          1.74045        1.65575        1.54391
O          3.00525        2.25235        1.62567
N          2.36208        1.22268       -2.21228
O          2.15065        1.63159       -0.96818
O          2.37279        0.02643       -2.33189
Rh        -0.11335       -0.86891       -0.36003
Cl         0.48436       -1.39327        1.91412
C         -2.63312       -0.04280        2.84117
C         -3.17661        0.09088        1.42442
P         -1.83318        0.48509        0.22339
C         -1.58384        2.31247        0.50365
O         -0.54406        2.78107       -0.30261
N         -2.88289        0.67039       -1.22518
O         -2.65046        1.61789       -1.94837
O         -3.71730       -0.18216       -1.41909
C         -0.22889       -3.03896       -0.91790
C         -1.48542       -2.48730       -0.54198
H          2.77101       -2.44828        0.53956
H          3.30391       -1.90195       -1.06619
H          4.48161       -2.17912        0.22012
H          3.48089       -0.32282        1.55332
H          4.11246        0.25229        0.00257
H          1.57580        1.11020        2.47504
H          0.95483        2.40191        1.40470
H          3.11136        2.84330        0.87094
H          0.86057       -1.92261       -0.86857
H         -0.29805       -0.45459       -1.80352
H         -3.41696       -0.38953        3.51051
H         -2.26591        0.91210        3.21172
H         -1.81242       -0.75679        2.87036
H         -3.62991       -0.84928        1.09832
H         -3.93624        0.87838        1.36634
H         -2.52328        2.85720        0.32159
H         -1.28340        2.46021        1.54588
H         -0.82570        2.71753       -1.22854
H         -0.07885       -3.30473       -1.95969
H          0.25084       -3.71492       -0.21535
H         -1.88076       -2.77099        0.42983
H         -2.24281       -2.35356       -1.30950
