50
1906.log
C          3.20823       -1.72012        2.64558
C          2.25078       -1.93231        1.48078
P          1.17825       -0.51730        0.98230
C          0.42132       -0.11819        2.61054
C          2.29420        1.00085        0.89089
N          2.57523        1.41918       -0.44849
N          3.09266        0.54146       -1.30760
O          3.29920       -0.56910       -0.86861
O          3.32013        0.92999       -2.42434
Rh        -0.24669       -1.01360       -0.72351
Cl        -0.96057       -2.62829        0.86932
C         -4.30931        0.64243        1.64494
C         -3.16135       -0.26369        1.22159
P         -2.08236        0.31061       -0.15721
C         -3.32992        0.75422       -1.43754
C         -1.71097        2.06132        0.39035
N         -0.59485        2.54395       -0.37087
N          0.12277        3.57887        0.05831
O          1.15513        3.80889       -0.54451
O         -0.30082        4.19818        1.00368
C         -0.55532       -2.57224       -2.34786
C         -1.71545       -1.84130       -2.21505
H          3.73371       -2.65452        2.83171
H          3.95829       -0.96551        2.42049
H          2.69027       -1.44500        3.56066
H          2.80701       -2.23897        0.59453
H          1.53465       -2.72290        1.72508
H          1.19948        0.16464        3.31761
H         -0.29014        0.69958        2.52294
H         -0.09809       -1.00631        2.96471
H          3.22746        0.75404        1.41060
H          1.81486        1.83024        1.41104
H          2.36026        2.36027       -0.77820
H          0.97145       -1.80713       -1.08460
H          0.25511        0.02056       -1.72221
H         -5.02869        0.78063        0.84231
H         -4.83209        0.18177        2.48074
H         -3.95379        1.61709        1.97026
H         -3.54216       -1.23847        0.89970
H         -2.49947       -0.46486        2.06792
H         -4.02054        1.50367       -1.05611
H         -3.88840       -0.13268       -1.72954
H         -2.81970        1.15392       -2.31315
H         -1.46173        2.09572        1.45851
H         -2.57735        2.71322        0.23104
H         -0.17554        1.92325       -1.06682
H          0.10680       -2.39508       -3.18746
H         -0.47240       -3.54724       -1.88004
H         -2.54980       -2.26974       -1.66868
H         -1.97007       -1.11089       -2.97434
