44
191.log
C         -3.35346        1.76481       -1.94390
C         -3.25452        0.96277       -0.68582
O         -4.08612        0.88418        0.17137
O         -2.06400        0.31772       -0.61084
P         -1.59024       -0.61691        0.65420
C         -2.95901       -1.82151        0.80668
C         -1.90685        0.51505        2.11824
C         -1.77692        1.86669        1.67740
N         -1.70024        2.92155        1.23963
Rh         0.44555       -1.53288        0.38548
Cl        -0.47415       -1.98132       -1.78151
C          3.38565        2.20731        2.12525
C          2.25830        1.58976        1.36051
O          1.11075        1.53067        1.71861
O          2.63425        1.07611        0.18025
P          1.42177        0.29354       -0.65663
C          2.39609        0.09164       -2.19227
C          0.40895        1.76534       -1.19822
C          1.28442        2.83037       -1.57648
N          2.01146        3.66797       -1.85781
C          1.69807       -3.39710        0.42657
C          2.42036       -2.40557       -0.20297
H         -2.92443        1.21065       -2.77459
H         -4.39254        2.01164       -2.14090
H         -2.79056        2.68759       -1.80696
H         -2.91259       -2.47962       -0.06090
H         -2.80186       -2.40894        1.70873
H         -3.92380       -1.31958        0.84310
H         -1.15260        0.29915        2.87574
H         -2.91328        0.35178        2.51026
H         -0.26760       -2.66676        1.07032
H          0.95155       -1.18274        1.76549
H          4.30975        2.13788        1.56052
H          3.14663        3.24997        2.32390
H          3.48928        1.69996        3.08231
H          2.60052        1.06584       -2.63448
H          3.34058       -0.40092       -1.97264
H          1.81721       -0.51821       -2.88375
H         -0.19503        1.43452       -2.04620
H         -0.23955        2.10577       -0.38650
H          1.92682       -3.68221        1.44725
H          1.20036       -4.15351       -0.17096
H          2.48550       -2.42951       -1.28478
H          3.23970       -1.91365        0.31274
