50
1911.log
C          2.97507        2.21701       -2.16878
O          3.01332        2.69473       -0.84462
C          1.79618        2.56239       -0.16600
P          1.44614        0.81161        0.42116
C          0.85017        1.12033        2.12243
C          3.21249        0.37931        0.82371
C          3.19005       -0.89389        1.61490
O          3.13926       -0.95880        2.81297
O          3.22595       -1.96666        0.82016
Rh         0.34579       -0.75943       -0.86007
Cl         0.20643       -2.09341        1.12540
C         -1.50666        3.77850        0.41244
O         -1.23670        2.40696        0.23630
C         -2.11654        1.78977       -0.67081
P         -1.78190       -0.02338       -0.54386
C         -3.08842       -0.61656       -1.69270
C         -2.55438       -0.37433        1.11005
C         -4.02480       -0.13343        1.09858
O         -4.56382        0.94501        1.12439
O         -4.72149       -1.27381        1.02027
C          1.09412       -2.57935       -1.91278
C         -0.32486       -2.43600       -1.96648
H          3.97640        2.34848       -2.57486
H          2.69354        1.15892       -2.20236
H          2.25726        2.78863       -2.76939
H          0.96032        2.90533       -0.78665
H          1.87216        3.20002        0.72024
H          1.59590        1.68884        2.67749
H          0.70081        0.15632        2.60759
H         -0.09084        1.66131        2.08484
H          3.76614        0.23943       -0.10491
H          3.64144        1.19318        1.41101
H          3.00716       -2.76257        1.33279
H          1.71683       -1.35346       -1.16700
H          0.42148        0.07899       -2.12351
H         -1.40020        4.32813       -0.53045
H         -0.78448        4.15462        1.13449
H         -2.52245        3.92743        0.79606
H         -1.93120        2.13213       -1.70140
H         -3.16294        2.00265       -0.40437
H         -3.26535       -1.67668       -1.52008
H         -2.74294       -0.47818       -2.71581
H         -4.01316       -0.06018       -1.54565
H         -2.32978       -1.41405        1.35661
H         -2.05688        0.28769        1.82095
H         -5.67538       -1.09524        1.01245
H          1.65353       -2.45919       -2.83625
H          1.49600       -3.34420       -1.25543
H         -0.91236       -3.11490       -1.35486
H         -0.77097       -2.21644       -2.93271
