50
1913.log
C         -3.52424       -1.03852       -1.87551
C         -3.49701       -1.20102       -0.36401
P         -1.95107       -0.58627        0.42866
O         -2.37459       -1.05936        1.91565
C         -1.50154       -0.95617        3.03062
C         -2.35011        1.23788        0.56674
O         -2.16611        1.84681        1.59142
O         -2.85805        1.71454       -0.54416
C         -3.12311        3.11410       -0.62999
Rh         0.08437       -1.14210       -0.44176
Cl        -0.24491        0.69916       -1.91915
C          0.76055        2.91771        0.59563
C          0.96771        1.79472        1.60255
P          1.43015        0.17054        0.86716
O          2.02259       -0.41713        2.25314
C          2.60546       -1.70890        2.34761
C          3.02745        0.64221        0.01814
O          4.10448        0.24699        0.38779
O          2.80752        1.40944       -1.02857
C          3.93256        1.80299       -1.80848
C          0.61823       -2.39751       -2.21815
C          1.74539       -1.77955       -1.59395
H         -2.75222       -1.64833       -2.34121
H         -3.34625       -0.00350       -2.15425
H         -4.48991       -1.35035       -2.26910
H         -4.33218       -0.67275        0.10447
H         -3.56424       -2.25697       -0.08443
H         -1.82807       -1.70564        3.75189
H         -0.46627       -1.15215        2.73708
H         -1.57144        0.03803        3.47453
H         -3.12145        3.55711        0.36684
H         -4.09595        3.23369       -1.10398
H         -2.34797        3.57104       -1.24646
H         -0.66084       -2.05973       -1.41729
H          0.22540       -2.32768        0.49811
H          0.20736        2.55947       -0.27002
H          0.19799        3.72634        1.05812
H          1.70960        3.31313        0.24308
H          0.04246        1.61793        2.15792
H          1.75603        2.03511        2.32233
H          3.60399       -1.70608        1.90934
H          1.98540       -2.45622        1.84280
H          2.66838       -1.93982        3.41081
H          3.53307        2.19033       -2.74244
H          4.58539        0.94654       -1.98868
H          4.49880        2.57636       -1.28532
H          0.52903       -3.47837       -2.15097
H          0.29651       -1.98853       -3.17201
H          2.20246       -0.95296       -2.12994
H          2.46074       -2.41924       -1.08296
