46
1917.log
C          3.87962       -2.59389       -0.28988
O          3.67562       -1.30399       -0.81438
O          4.29206       -0.32056        0.00494
C          3.35799        0.26277        0.87437
P          1.91051        1.03272       -0.02297
C          1.70314        2.48025        1.09028
C          2.79397        1.78903       -1.43668
Rh         0.11687       -0.35298       -0.32072
Cl         0.29752       -0.46115        2.07314
C         -5.19224       -1.91289        0.27598
O         -4.98847       -0.66397       -0.32217
O         -3.71237       -0.14054        0.10478
C         -3.22120        0.74294       -0.85030
P         -1.53124        1.21359       -0.22947
C         -2.01707        1.91243        1.38742
C         -1.34723        2.71899       -1.27221
C          0.01035       -2.58270       -0.36244
C         -1.26889       -1.95186       -0.34428
H          3.40524       -2.71744        0.68917
H          4.94580       -2.82405       -0.21391
H          3.40816       -3.25585       -1.01439
H          3.93593        1.03994        1.38351
H          2.97658       -0.44912        1.61958
H          0.92522        3.13964        0.71127
H          1.41066        2.11072        2.07199
H          2.64009        3.03181        1.16588
H          3.12451        0.98906       -2.09572
H          3.65570        2.35919       -1.09191
H          2.10926        2.43515       -1.98293
H          1.12540       -1.48867       -0.43498
H          0.10712       -0.25051       -1.83483
H         -6.19040       -2.20573       -0.04620
H         -4.45700       -2.64855       -0.06498
H         -5.15919       -1.83996        1.36657
H         -3.13252        0.26987       -1.83861
H         -3.86130        1.63488       -0.93520
H         -2.31256        1.08259        2.02758
H         -1.16430        2.40925        1.84503
H         -2.84695        2.60856        1.27024
H         -1.36758        2.41489       -2.31728
H         -2.15204        3.42689       -1.07931
H         -0.38886        3.19367       -1.07544
H          0.30486       -3.11084       -1.26512
H          0.34176       -3.06368        0.55418
H         -1.83483       -1.99315        0.58166
H         -1.88003       -2.02716       -1.23918
