42
193.log
C         -4.69464       -1.57455       -0.43846
O         -3.43318       -0.91253       -0.40094
C         -2.96739       -0.57707        0.79457
O         -3.49796       -0.81125        1.84334
P         -1.33995        0.30372        0.57437
C         -1.22998        0.95283        2.27633
C         -2.00512        1.71098       -0.41832
Cl        -3.54839        2.26176        0.26146
Rh         0.15703       -1.09090       -0.45968
Cl         0.62548        0.56968       -2.15971
C          2.53571        3.74885       -0.92850
O          2.72629        2.37512       -0.59750
C          1.72392        1.76498        0.00357
O          0.73465        2.30547        0.44105
P          2.03158       -0.04645        0.22764
C          3.62745       -0.28583       -0.61508
C          2.59254       -0.00631        1.99605
Cl         3.06404       -1.67551        2.36704
C         -0.13281       -2.69233       -1.97967
C          1.22611       -2.53882       -1.56234
H         -4.66637       -2.46914        0.18618
H         -4.87407       -1.83447       -1.47853
H         -5.47609       -0.90743       -0.06988
H         -2.18936        1.39215        2.55030
H         -1.02690        0.10562        2.93226
H         -0.43636        1.69080        2.34906
H         -2.17912        1.38148       -1.44518
H         -1.30227        2.54290       -0.40081
H         -1.04785       -1.70291       -1.17830
H          0.00825       -2.06881        0.68478
H          3.50292        4.12162       -1.25530
H          2.17782        4.30265       -0.05859
H          1.80380        3.82867       -1.73433
H          3.95797       -1.31110       -0.44990
H          4.36652        0.41557       -0.22837
H          3.47986       -0.11487       -1.68085
H          1.77574        0.26920        2.66477
H          3.45902        0.63974        2.15525
H         -0.65366       -3.60019       -1.69038
H         -0.39103       -2.33858       -2.97449
H          1.91261       -2.09745       -2.27983
H          1.66570       -3.33585       -0.96834
