50
1933.log
C          3.76327        2.30001       -0.64029
C          3.05495        1.11432       -1.23328
O          2.51993        1.12853       -2.31262
C          3.18471       -0.16445       -0.42016
C          3.52183       -1.31356       -1.36966
P          1.61342       -0.61967        0.47268
C          2.28875       -1.98329        1.51638
N          1.65525        0.50031        1.88592
O          0.61539        0.59435        2.49605
O          2.70212        1.01041        2.19986
Rh        -0.35944       -1.18621       -0.51725
Cl        -0.86842       -2.52748        1.39391
C         -0.10563        2.84063       -1.89773
C         -0.04412        2.29074       -0.51061
O          0.97323        1.82931       -0.02812
C         -1.32605        2.26318        0.26690
C         -1.17569        2.93002        1.63083
P         -1.74105        0.40955        0.33572
C         -2.53355        0.22643        1.96941
N         -4.12910        1.32532       -0.28873
O         -3.07534        0.45199       -0.64309
O         -5.03845        1.26326       -1.04343
C         -0.85849       -2.97123       -1.77428
C         -1.96943       -2.11341       -1.52156
H          4.83703        2.13319       -0.72076
H          3.50471        3.20776       -1.17826
H          3.51394        2.40127        0.41227
H          3.95709       -0.03946        0.34596
H          3.64979       -2.25343       -0.83855
H          2.72533       -1.41802       -2.10573
H          4.44495       -1.09147       -1.90252
H          2.37487       -2.89011        0.92187
H          3.25615       -1.71149        1.94074
H          1.56994       -2.18474        2.31121
H          0.41090       -2.36229       -1.12801
H         -0.05972       -0.35212       -1.74510
H         -0.94454        2.38668       -2.42226
H          0.81863        2.62494       -2.42740
H         -0.27241        3.91607       -1.85733
H         -2.13311        2.74498       -0.29428
H         -2.13096        2.97474        2.14535
H         -0.81413        3.94862        1.49406
H         -0.46464        2.39363        2.25168
H         -3.32994        0.95926        2.08464
H         -1.77876        0.32587        2.74303
H         -2.94053       -0.78347        2.01154
H         -0.47380       -3.01955       -2.78882
H         -0.83279       -3.92003       -1.24570
H         -2.72453       -2.46901       -0.82683
H         -2.37213       -1.54187       -2.35222
