46
1949.log
C         -2.37258       -1.12995        2.07067
C         -2.76637       -0.98742        0.60537
C         -3.45620        0.31594        0.28579
O         -3.41646        0.79809       -0.82299
O         -4.17424        0.82129        1.27654
P         -1.33040       -1.04168       -0.57688
C         -2.11053       -1.56172       -2.16201
C         -0.73456       -2.77295       -0.27274
O         -1.27621       -3.55029        0.46309
Rh         0.03779        0.79101       -0.73655
Cl        -1.14623        1.81527        1.05727
C          2.03244       -2.37434        1.57011
C          2.69846       -1.30451        0.71650
C          2.78643       -1.70075       -0.72887
O          2.28835       -2.67273       -1.22802
O          3.49091       -0.80754       -1.43406
P          1.71997        0.30935        0.74735
C          1.46915        0.52676        2.53970
C          3.17011        1.44170        0.55158
O          3.46323        2.26960        1.36727
C         -0.27581        2.68986       -1.86544
C          0.94678        2.68444       -1.14246
H         -3.26204       -1.07327        2.69359
H         -1.70744       -0.31720        2.35363
H         -1.88454       -2.08679        2.23977
H         -3.44113       -1.80529        0.31770
H         -4.51865        1.69449        1.03197
H         -2.70699       -0.73896       -2.54927
H         -2.73758       -2.44091       -2.01151
H         -1.31136       -1.79498       -2.86528
H          0.12954       -3.05988       -0.89943
H         -1.04125        1.26805       -1.69234
H          0.77592        0.14815       -1.89878
H          0.95075       -2.34180        1.44200
H          2.37485       -3.36089        1.26339
H          2.26520       -2.23311        2.62167
H          3.71051       -1.08146        1.07180
H          3.48484       -1.04053       -2.37679
H          2.40947        0.38429        3.07180
H          0.70614       -0.15928        2.90184
H          1.11478        1.54725        2.68637
H          3.74561        1.31280       -0.38403
H         -0.23071        2.64826       -2.94960
H         -1.09205        3.29202       -1.47800
H          1.00844        3.29990       -0.24891
H          1.87109        2.63931       -1.71166
