50
1954.log
C          1.01562        2.79454        0.53146
C          2.26802        2.53809       -0.26695
O          2.82152        3.42888       -0.87805
N          2.75926        1.25835       -0.25047
C          3.80569        0.97586       -1.22506
P          1.93835       -0.10133        0.45191
C          2.06253        0.28232        2.24940
C          3.29035       -1.34178        0.45815
Rh         0.08674       -0.95644       -0.57549
Cl         0.25464       -2.67303        1.10937
C         -3.38636        2.77282       -1.33743
C         -2.85188        1.46074       -0.83707
O         -2.79893        0.45251       -1.51974
N         -2.40688        1.37288        0.43989
C         -2.42133        2.50326        1.33898
P         -1.68843       -0.21072        0.67445
C         -1.41972       -0.13812        2.49189
C         -3.17997       -1.27796        0.75495
C          0.06073       -2.51931       -2.21418
C         -1.22680       -2.19708       -1.70769
H          1.27502        3.03498        1.56023
H          0.52417        3.66309        0.09810
H          0.35159        1.93026        0.49398
H          4.01569        1.90290       -1.75888
H          4.71896        0.63738       -0.73775
H          3.46469        0.22563       -1.94081
H          1.39870        1.07652        2.57160
H          1.79972       -0.63595        2.77279
H          3.09179        0.55764        2.47720
H          3.54577       -1.67225       -0.54622
H          4.17478       -0.95959        0.96567
H          2.89456       -2.19558        1.00865
H          1.11482       -1.64046       -1.48364
H          0.00028        0.16736       -1.58004
H         -4.18426        3.13620       -0.69384
H         -2.59010        3.51443       -1.35799
H         -3.76588        2.63341       -2.34549
H         -3.45005        2.77267        1.59498
H         -1.93757        3.37124        0.88679
H         -1.89495        2.25705        2.25511
H         -2.35223        0.07218        3.01425
H         -1.06392       -1.12670        2.77578
H         -0.65945        0.58448        2.77341
H         -3.60050       -1.43798       -0.23249
H         -2.86380       -2.23080        1.17695
H         -3.92206       -0.81605        1.40593
H          0.30997       -2.19917       -3.22158
H          0.48444       -3.48241       -1.94027
H         -1.70690       -2.93834       -1.07600
H         -1.90277       -1.63019       -2.33640
