36
1960.log
C         -1.81423       -2.14167       -1.33409
P         -1.62109       -0.68244       -0.26827
O         -1.51036       -1.37984        1.16093
C         -3.35116       -0.01526       -0.24881
N         -4.24568       -1.09864        0.10324
Rh        -0.03198        0.90632       -0.54069
Cl        -0.64499        1.39364        1.75813
C          1.94857       -0.70249        1.97871
P          1.53749       -0.62730        0.17172
O          1.12912       -2.14493       -0.15028
C          3.26566       -0.68608       -0.55175
N          3.79424       -2.01167       -0.27144
C          0.66294        3.00313       -0.77913
C          1.74553        2.23687       -0.39188
H         -1.93247       -1.80899       -2.36138
H         -0.93354       -2.76886       -1.24394
H         -2.70392       -2.67153       -1.00091
H         -1.23760       -0.67137        1.78435
H         -3.37425        0.84715        0.43799
H         -3.58677        0.34108       -1.25459
H         -3.99605       -1.46058        1.01895
H         -5.20584       -0.77470        0.14661
H         -1.18320        1.72795       -1.06389
H          0.24379        0.57356       -1.98736
H          3.02082       -0.66250        2.15840
H          1.47565        0.13697        2.48423
H          1.53503       -1.62391        2.38439
H          1.95111       -2.67028       -0.21417
H          3.16147       -0.57069       -1.63364
H          3.88052        0.13684       -0.16728
H          4.56168       -2.24652       -0.88960
H          4.13210       -2.07170        0.68322
H          0.57683        3.33835       -1.80640
H          0.14780        3.61744       -0.04791
H          2.08329        2.26906        0.64008
H          2.50738        1.98633       -1.12219
