42
1965.log
C          1.65259        0.58554       -1.63541
P          1.17966       -0.54129       -0.26055
Br         2.44711       -2.21758       -0.99286
C          2.26468       -0.10605        1.18126
C          3.63862        0.45633        0.84157
C          3.59115        1.90183        0.42833
O          2.81968        2.72823        0.85932
O          4.53040        2.20664       -0.45664
Rh        -0.90680       -1.36817        0.25964
Cl        -0.67716       -0.57707        2.51276
C         -3.86455       -0.03868       -0.99165
P         -2.19212        0.43154       -0.35465
Br        -1.63405        1.55310       -2.15853
C         -2.81788        1.79650        0.75929
C         -1.86327        2.31293        1.82558
C         -0.43788        2.26230        1.35633
O         -0.11778        1.63450        0.36142
O          0.40486        2.93791        2.08670
C         -1.52585       -3.32369        1.15466
C         -2.61883       -2.45692        0.87517
H          1.31247        1.59834       -1.44626
H          1.15937        0.22314       -2.53933
H          2.73081        0.56445       -1.79328
H          2.37127       -1.03663        1.75028
H          1.71304        0.58364        1.82001
H          4.26377        0.41712        1.74044
H          4.14845       -0.12603        0.07026
H          4.51210        3.14954       -0.68941
H         -0.16770       -2.62720        0.70498
H         -1.04036       -1.91084       -1.15439
H         -4.41556        0.83952       -1.33292
H         -3.74652       -0.72790       -1.82832
H         -4.43354       -0.53675       -0.20849
H         -3.14129        2.61447        0.10558
H         -3.70475        1.37750        1.24291
H         -2.10734        3.33060        2.13392
H         -1.89736        1.67376        2.71286
H          1.32892        2.88438        1.72863
H         -1.40380       -4.21198        0.54291
H         -1.23849       -3.45790        2.19313
H         -3.11571       -1.99499        1.72481
H         -3.29003       -2.74434        0.07012
