44
1966.log
C          0.63015        2.28425       -0.64433
P         -0.78885        1.14170       -0.71162
C         -1.44928        1.59101       -2.36945
O         -1.74788        2.02576        0.28167
C         -2.83305        1.47523        0.98849
C         -3.96365        1.07769        0.04999
Cl        -5.37447        0.55604        0.99082
Rh        -0.40308       -1.08247       -0.35431
Cl         1.14412       -0.65972       -2.13515
C          1.51729       -2.17200        2.38415
P          1.03083       -0.70430        1.37713
C          0.41854        0.39613        2.70115
O          2.45323        0.05183        1.21199
C          3.42166       -0.31703        0.23757
C          4.60595        0.62123        0.37280
Cl         4.16478        2.27857       -0.10211
C         -1.02893       -2.91333       -1.47239
C         -0.03428       -3.15228       -0.46590
H          0.24835        3.30306       -0.69078
H          1.28013        2.08290       -1.49196
H          1.19418        2.14278        0.27500
H         -0.72423        1.27350       -3.11515
H         -2.39802        1.09410       -2.56452
H         -1.58282        2.67094       -2.41575
H         -3.16875        2.25100        1.68382
H         -2.51179        0.59232        1.55594
H         -4.26910        1.91914       -0.57229
H         -3.64893        0.23608       -0.57082
H         -1.41835       -1.45316       -1.45152
H         -1.47107       -1.30378        0.70059
H          2.05375       -2.88930        1.76558
H          0.62090       -2.64876        2.77032
H          2.15434       -1.84866        3.20633
H          1.23195        0.61302        3.39048
H          0.04338        1.32320        2.27308
H         -0.39167       -0.10725        3.22277
H          2.98909       -0.26280       -0.76760
H          3.76879       -1.34185        0.41885
H          5.41726        0.30405       -0.28090
H          4.94410        0.67060        1.40797
H         -2.01920       -3.32995       -1.30961
H         -0.70544       -2.96244       -2.50885
H          0.97017       -3.37534       -0.81821
H         -0.33258       -3.74245        0.39654
