40
1967.log
C          4.67843        0.11217       -0.75662
C          3.46748       -0.71721       -0.35419
P          1.83394        0.07007       -0.66031
N          2.16164        0.91722       -2.09973
C          1.82159        1.55007        0.45814
O          0.90955        2.34645        0.41202
O          2.90794        1.72397        1.18886
Rh        -0.02876       -1.11051       -0.14114
Cl         0.83286       -0.36405        1.98190
C         -3.08517        2.44510        1.24516
C         -1.97225        1.41694        1.38045
P         -1.50900        0.62873       -0.20911
N         -1.45332        1.95846       -1.24445
C         -3.16399       -0.00755       -0.74928
O         -4.01691       -0.46743       -0.04092
O         -3.26222        0.04640       -2.07654
C         -0.28441       -3.19090        0.66460
C         -1.47315       -2.39040        0.72283
H          4.70263        1.04655       -0.20495
H          5.58802       -0.44316       -0.53613
H          4.65989        0.33905       -1.81915
H          3.48864       -0.95196        0.71413
H          3.45434       -1.66551       -0.90370
H          2.27380        0.27627       -2.88037
H          1.40993        1.56393       -2.32298
H          2.80381        2.47833        1.79456
H          0.80348       -2.40833       -0.01328
H         -0.42270       -1.50922       -1.55312
H         -2.81088        3.21699        0.53137
H         -4.00551        1.97188        0.91155
H         -3.27020        2.91272        2.21014
H         -1.06341        1.87261        1.77924
H         -2.26482        0.60428        2.05163
H         -0.67771        2.55654       -0.96621
H         -1.34977        1.67152       -2.21324
H         -4.10189       -0.33853       -2.38379
H         -0.28575       -4.04182       -0.01065
H          0.22610       -3.38674        1.60417
H         -1.78952       -2.04378        1.70319
H         -2.30329       -2.67587        0.08357
