50
197.log
C          4.29070       -0.15957        0.12199
C          3.38686        1.06084        0.06378
P          1.59028        0.73756        0.16828
C          0.99605        2.51099        0.28134
N          1.68580        3.30631       -0.70600
C          1.20145        3.07844       -2.05160
N          1.36953        0.39679        1.92524
O          2.30837        0.65035        2.64526
O          0.27183        0.05489        2.30625
Rh         0.53395       -0.87137       -0.97878
Cl         1.76081       -2.01892        0.74019
C         -2.79501       -1.05426        2.69888
C         -1.83814       -1.70735        1.71751
P         -1.38285       -0.57479        0.31985
C         -3.00141       -0.76761       -0.69943
N         -3.61111        0.53021       -0.80631
C         -3.12393        1.41484       -1.83245
N         -3.18247        1.40199        0.86736
O         -1.66613        0.91039        0.75350
O         -3.20908        2.56638        0.67800
C         -0.01761       -2.42447       -2.56027
C         -0.37635       -2.92837       -1.33589
H          4.21874       -0.64402        1.09236
H          5.32331        0.14243       -0.04095
H          4.01500       -0.88208       -0.64350
H          3.62156        1.75783        0.87494
H          3.50484        1.58801       -0.88788
H          1.26263        2.87620        1.27991
H         -0.10003        2.52318        0.18060
H          1.61160        4.29157       -0.47073
H          1.76909        3.69776       -2.74363
H          1.36377        2.02700       -2.29770
H          0.13091        3.29979       -2.16766
H          1.77420       -0.91388       -1.84620
H         -0.07269        0.03906       -2.01904
H         -2.32664       -0.16956        3.12055
H         -3.72307       -0.75382        2.21579
H         -3.02698       -1.74305        3.50866
H         -0.90992       -1.97322        2.22395
H         -2.25952       -2.62081        1.28922
H         -2.77310       -1.17025       -1.69053
H         -3.67728       -1.44687       -0.17830
H         -4.62328        0.52590       -0.73681
H         -2.07221        1.19571       -2.01813
H         -3.68955        1.33024       -2.76120
H         -3.20782        2.44443       -1.45792
H         -0.76498       -2.02298       -3.23645
H          0.89436       -2.75724       -3.03978
H          0.27280       -3.63205       -0.82706
H         -1.41669       -2.96172       -1.03214
