38
1976.log
C         -1.71505        0.51491       -2.52960
P         -0.51476        1.10743       -1.26659
C         -0.59408        2.89499       -1.64166
C         -1.49808        0.96083        0.28753
O         -1.62453       -0.05679        0.92399
O         -2.28128        2.07197        0.49300
C         -3.00410        2.17545        1.54818
N         -3.66330        2.32157        2.46867
Rh         1.48370        0.29594       -0.51350
Cl         0.65301        1.84457        1.18660
C          1.80495       -2.94353        0.75523
P          0.74448       -1.43514        0.79173
C          0.57048       -1.22621        2.59320
C         -0.81193       -2.36671        0.44828
O         -1.43845       -3.04507        1.19112
O         -1.07557       -2.24031       -0.89831
C         -2.08939       -2.79653       -1.45308
N         -2.97424       -3.24824       -2.01696
C          3.49560        1.25371       -0.54163
C          3.41206        0.11164        0.32002
H         -1.89156       -0.55422       -2.46021
H         -1.29060        0.72961       -3.51043
H         -2.66098        1.04838       -2.42088
H         -0.09417        3.05213       -2.59842
H         -0.07952        3.46682       -0.87131
H         -1.62983        3.22537       -1.71831
H          2.17431        1.42935       -1.29026
H          1.82445       -0.64668       -1.64220
H          1.34596       -3.73634        1.34628
H          2.78055       -2.69921        1.17067
H          1.93610       -3.27556       -0.27355
H          1.54737       -0.99691        3.01782
H         -0.11524       -0.40970        2.80770
H          0.17680       -2.15078        3.01513
H          4.12378        1.17187       -1.42343
H          3.53924        2.23198       -0.06960
H          3.42208        0.30148        1.39113
H          3.97634       -0.76969        0.02882
