50
198.log
C          4.31236       -0.31249        0.25265
C          3.51995        0.97045        0.05409
P          1.70454        0.76565        0.13766
C          1.19614        2.56610        0.14480
N          1.92246        3.25730       -0.89243
C          1.42710        2.95648       -2.21993
N          1.45948        0.54633        1.90770
O          2.41602        0.69931        2.63013
O          0.31381        0.40626        2.27941
Rh         0.62164       -0.89179       -0.93169
Cl         1.56222       -2.02309        0.96210
C         -3.31295       -1.81161        1.84886
C         -1.87539       -1.33075        1.71921
P         -1.36396       -0.41842        0.18468
C         -2.90757       -0.56748       -0.92749
N         -3.87597        0.40925       -0.51704
C         -4.28890        1.45009       -1.41539
N         -3.03245        1.40047        1.00860
O         -1.60530        1.11900        0.48152
O         -3.30324        2.54543        0.84673
C          0.70706       -2.81273       -2.04860
C         -0.54590       -2.70377       -1.47239
H          4.16173       -0.70166        1.25654
H          5.37308       -0.11746        0.10990
H          4.00045       -1.07438       -0.45952
H          3.78974        1.71447        0.81041
H          3.70648        1.39868       -0.93512
H          1.48123        2.98289        1.11790
H          0.10097        2.61751        0.04088
H          1.89390        4.25927       -0.72814
H          2.02011        3.50047       -2.95278
H          1.54248        1.88404       -2.39055
H          0.36706        3.21320       -2.35205
H          1.92123       -0.98499       -1.69287
H          0.10283       -0.12410       -2.12889
H         -4.00442       -0.97300        1.85020
H         -3.58727       -2.51331        1.06293
H         -3.41868       -2.33075        2.80016
H         -1.64211       -0.63945        2.52960
H         -1.18834       -2.17491        1.80748
H         -2.56154       -0.33925       -1.93797
H         -3.31367       -1.57842       -0.90675
H         -4.63259        0.03094        0.03730
H         -3.62038        1.50164       -2.27214
H         -5.31609        1.32341       -1.75579
H         -4.21868        2.41182       -0.87332
H          0.82523       -2.66468       -3.11626
H          1.46416       -3.43068       -1.57796
H         -0.76377       -3.25906       -0.56541
H         -1.39975       -2.49685       -2.10762
