26
1981.log
C         -2.25327       -0.58792        1.85865
P         -1.70764       -0.29346        0.13644
Cl        -1.65812       -2.12306       -0.60767
C         -3.27942        0.23173       -0.52623
N         -4.27380        0.60468       -0.95260
Rh         0.05558        1.04183       -0.35656
Cl         0.67131        1.02719        1.96567
C          3.27358       -0.34102        0.36595
P          1.54318       -0.64401       -0.15085
Cl         1.81795       -2.00811       -1.57308
C          1.05177       -1.74374        1.16002
N          0.68744       -2.46352        1.97342
C          0.33114        3.25545       -0.50835
C          1.52321        2.50300       -0.75423
H         -2.45163        0.37439        2.32976
H         -3.15115       -1.20659        1.86128
H         -1.45071       -1.08760        2.40218
H         -0.84717        2.28826       -0.28528
H         -0.22912        0.91509       -1.84272
H          3.75941       -1.29599        0.56975
H          3.27291        0.27773        1.26116
H          3.79568        0.17289       -0.44149
H         -0.11192        3.79092       -1.34245
H          0.26457        3.78623        0.43753
H          2.29078        2.53760        0.01465
H          1.91728        2.50126       -1.76742
