42
1998.log
C          0.62238        1.90620        1.62904
P          1.51118        0.99817        0.30532
C          2.06850        2.43729       -0.73729
C          0.87481        3.00394       -1.28769
N         -0.10889        3.41924       -1.69697
C          3.03549        0.66451        1.31626
N          4.15390        0.30755        0.45806
O          5.23410        0.15406        0.96502
O          3.90966        0.19512       -0.72451
Rh         0.56589       -0.84854       -0.62999
Cl         0.80490       -1.61925        1.64472
C         -2.91813       -1.46810       -1.11143
P         -1.66567       -0.40410       -0.30898
C         -2.30760        1.29286       -0.73783
C         -3.68726        1.29326       -1.13183
N         -4.78225        1.28093       -1.45783
C         -2.21416       -0.60013        1.47527
N         -3.49093        0.05189        1.67619
O         -4.49130       -0.59183        1.46813
O         -3.45788        1.21978        2.00015
C          1.47116       -2.75990       -1.39099
C          0.06041       -2.80837       -1.31649
H          1.22092        2.74457        1.98684
H         -0.32695        2.28607        1.25774
H          0.43759        1.21915        2.45353
H          2.70011        2.06929       -1.54934
H          2.60335        3.18140       -0.13971
H          2.78905       -0.19980        1.95373
H          3.32360        1.49447        1.96855
H          1.98948       -1.24392       -0.95941
H          0.46372       -0.27802       -2.02760
H         -2.70857       -2.51244       -0.88492
H         -2.86201       -1.32033       -2.18976
H         -3.92322       -1.21830       -0.76714
H         -2.18631        1.96829        0.11572
H         -1.70193        1.67863       -1.56561
H         -2.29375       -1.67378        1.66389
H         -1.45923       -0.15599        2.12680
H          1.94124       -2.72666       -2.36792
H          2.04451       -3.28970       -0.63604
H         -0.37693       -3.40077       -0.51666
H         -0.49868       -2.82531       -2.24701
