48
2.log
C         -2.84019        2.75121        0.88344
C         -2.94255        2.14948       -0.52186
C         -3.19020        0.67815       -0.41964
O         -4.26398        0.18684       -0.16338
P         -1.79479       -0.55351       -0.65544
O         -2.70927       -1.84168       -0.86529
C         -1.35278       -0.23367       -2.43046
C         -0.80016       -1.50556       -3.06063
Rh        -0.32769       -0.71174        1.07848
Cl         1.28438       -1.93295       -0.22436
C          3.53430       -0.87545       -2.47540
C          2.54422        0.16556       -1.96788
C          2.58591        0.30048       -0.47333
O          3.59565        0.21331        0.19816
P          1.12864        1.03001        0.48826
O          2.00497        1.69994        1.65082
C          0.74999        2.55752       -0.51697
C          1.93634        3.50581       -0.62587
C          0.30858       -1.90642        2.89097
C          1.15293       -0.82631        2.75435
H         -3.75241        2.55435        1.44058
H         -2.00326        2.31153        1.42224
H         -2.69557        3.82671        0.81599
H         -3.78757        2.60722       -1.04246
H         -2.02389        2.33037       -1.07949
H         -3.55403       -1.71406       -0.39934
H         -2.26707        0.08306       -2.94235
H         -0.62462        0.57643       -2.47908
H          0.04088       -1.88597       -2.48438
H         -0.47236       -1.31194       -4.08034
H         -1.56629       -2.27621       -3.07990
H         -1.20395       -1.90383        1.34950
H         -1.26733        0.09846        1.94249
H          3.53951       -0.89374       -3.56239
H          4.53465       -0.64668       -2.11707
H          3.25019       -1.85600       -2.10365
H          2.81204        1.15010       -2.36941
H          1.53284       -0.07183       -2.29142
H          2.90027        1.30295        1.58371
H          0.40635        2.24806       -1.50579
H         -0.07369        3.06617       -0.01191
H          1.67732        4.35647       -1.25391
H          2.80605        3.01352       -1.05596
H          2.21039        3.87760        0.35808
H         -0.47247       -1.89797        3.64332
H          0.63170       -2.88956        2.56405
H          2.14517       -0.98135        2.34142
H          1.04370        0.03485        3.40468
