36
20.log
C          2.58712        2.90394       -0.65300
C          1.42872        2.00334       -0.39383
O          0.27441        2.32562       -0.51371
P          1.77142        0.23131        0.13281
C          2.32374        0.49136        1.86068
C          3.36444        0.04335       -0.62895
N          4.38305       -0.12064       -1.12853
Rh         0.08394       -1.14687       -0.42251
Cl        -0.12520       -1.74232        1.89502
C         -2.73083        2.87988       -0.52520
C         -2.42181        1.50293       -1.00254
O         -2.74492        1.03398       -2.05777
P         -1.53453        0.33635        0.16762
C         -3.07288       -0.38226        0.87560
C         -1.10993        1.37885        1.53445
N         -0.77671        2.03539        2.41377
C         -0.05450       -3.29408       -1.03093
C         -1.31824       -2.62933       -0.95689
H          2.26219        3.94098       -0.70997
H          3.35387        2.78388        0.10981
H          3.02796        2.61421       -1.60834
H          2.58997       -0.48581        2.26673
H          1.48739        0.88629        2.43907
H          3.17918        1.16497        1.91019
H          1.07053       -2.29436       -0.70815
H          0.16326       -0.69735       -1.87258
H         -3.13626        2.84749        0.48522
H         -3.42547        3.37326       -1.20181
H         -1.79621        3.43754       -0.48539
H         -2.79283       -1.10168        1.64499
H         -3.62320       -0.88599        0.08051
H         -3.69238        0.40199        1.31351
H          0.31179       -3.58345       -2.01162
H          0.17518       -4.01205       -0.24803
H         -1.96447       -2.90493       -0.12771
H         -1.84787       -2.43924       -1.88677
