46
200.log
C         -4.88839        0.72957        1.51633
C         -4.13334        0.39766        0.25450
O         -4.63568        0.04524       -0.77787
O         -2.81763        0.57359        0.43412
C         -1.95482        0.32751       -0.66761
P         -1.09449       -1.32755       -0.55136
C         -2.36563       -2.32876        0.30766
N         -1.41431       -1.81408       -2.13486
Rh         1.11254       -1.29546        0.07974
Cl         1.13968        0.14550       -1.85057
C         -0.01647        3.45141       -1.96770
C          1.05797        3.22215       -0.94461
O          2.19545        3.59401       -1.02565
O          0.58045        2.53323        0.11326
C          1.53575        2.10084        1.06507
P          1.09517        0.38611        1.60313
C         -0.43607        0.76262        2.55422
N          2.29112        0.23879        2.78250
C          2.85331       -2.39504       -0.81583
C          3.22181       -1.37527        0.12513
H         -5.28609        1.73880        1.42713
H         -4.23063        0.68082        2.37832
H         -5.72411        0.04495        1.62955
H         -1.20854        1.12477       -0.67684
H         -2.53197        0.32169       -1.59987
H         -2.47178       -1.98973        1.33561
H         -3.31161       -2.24525       -0.22439
H         -2.03632       -3.36660        0.31603
H         -1.21686       -2.80218       -2.27047
H         -0.81833       -1.27982       -2.76790
H          1.36854       -2.48462       -0.87455
H          0.96798       -2.27937        1.22793
H          0.24102        4.30695       -2.58425
H         -0.98092        3.59304       -1.48880
H         -0.05889        2.56200       -2.59590
H          2.53652        2.10085        0.61532
H          1.53795        2.78269        1.92645
H         -0.21943        1.50477        3.32378
H         -1.20668        1.13870        1.88843
H         -0.78922       -0.15776        3.01802
H          2.17196        0.85038        3.58386
H          2.42165       -0.71740        3.08613
H          3.05150       -3.42734       -0.53976
H          3.04048       -2.18675       -1.86627
H          3.66824       -0.47049       -0.27874
H          3.67364       -1.69680        1.05900
