50
2011.log
C         -2.43427       -1.39293        2.76496
C         -2.97425       -0.66605        1.54649
P         -1.65951        0.19220        0.54649
N         -1.21213        1.33605        1.66929
N         -2.58206        1.01179       -0.63922
C         -3.00252        0.24932       -1.79746
C         -3.56801        2.00310       -0.26543
Rh         0.14643       -1.05858       -0.09842
Cl         0.22279       -0.52487       -2.46007
C          3.24135       -0.72080        2.09245
C          2.74687        0.65092        1.66056
P          1.70676        0.59935        0.13620
N          2.93406        0.63040       -1.03357
N          1.15501        2.22615        0.10282
C          0.37439        2.55563       -1.08516
C          2.13415        3.27539        0.36080
C          0.33011       -3.18402       -0.72536
C          1.59386       -2.52502       -0.55649
H         -3.24834       -1.81856        3.34989
H         -1.87074       -0.70532        3.39062
H         -1.76785       -2.19650        2.46043
H         -3.69113        0.10331        1.85416
H         -3.49266       -1.36492        0.88257
H         -0.39160        1.86660        1.38532
H         -1.94273        1.90978        2.07196
H         -3.95051       -0.27722       -1.63033
H         -3.12713        0.92543       -2.64642
H         -2.23192       -0.47584       -2.04952
H         -4.54754        1.56323       -0.03589
H         -3.22812        2.57605        0.59555
H         -3.69826        2.69562       -1.10112
H         -0.81986       -2.22306       -0.37686
H          0.23525       -1.42356        1.36186
H          2.39763       -1.38245        2.27645
H          3.82336       -0.64032        3.00915
H          3.87421       -1.16742        1.32752
H          2.12987        1.08330        2.45154
H          3.59994        1.30297        1.46159
H          3.58497       -0.13872       -0.91019
H          2.48855        0.51125       -1.94585
H         -0.24403        3.43254       -0.87652
H          1.01168        2.77541       -1.94771
H         -0.27664        1.72211       -1.34167
H          1.63780        4.23907        0.23785
H          2.98407        3.23455       -0.32768
H          2.49551        3.21245        1.38427
H          0.07364       -3.97126       -0.02114
H          0.01985       -3.40117       -1.74409
H          2.15185       -2.31695       -1.46579
H          2.22140       -2.86851        0.26206
