42
2020.log
C         -3.38302        0.41867       -2.21114
C         -3.24662        0.07808       -0.74160
Cl        -4.41508       -1.20470       -0.29831
P         -1.51401       -0.47288       -0.29612
C         -1.43911       -2.04826       -1.22128
C         -1.92240       -1.06553        1.42117
O         -1.59680       -2.12042        1.88929
O         -2.61686       -0.13397        2.04461
Rh        -0.03802        1.28716       -0.35069
Cl         0.24848        1.06773        2.03436
C          1.93317       -1.44263       -2.35487
C          2.85495       -0.62556       -1.47623
Cl         4.14478       -1.66976       -0.80548
P          1.96249        0.22331       -0.06479
C          3.35857        1.11498        0.69157
C          1.82864       -1.17177        1.15293
O          2.54105       -1.33559        2.09748
O          0.82454       -1.96359        0.79432
C         -0.43253        3.48457       -0.17736
C          0.94926        3.16566       -0.31882
H         -2.60603        1.13291       -2.48390
H         -3.27109       -0.47126       -2.82568
H         -4.35747        0.85760       -2.41452
H         -3.50016        0.93835       -0.11384
H         -2.39019       -2.57116       -1.12633
H         -1.23034       -1.82729       -2.26651
H         -0.64323       -2.66622       -0.81828
H         -2.76191       -0.34931        2.98236
H         -1.29693        2.15422       -0.26980
H         -0.06137        1.33021       -1.86689
H          2.46868       -1.83238       -3.21802
H          1.11856       -0.80274       -2.69335
H          1.51715       -2.27593       -1.79391
H          3.35541        0.15510       -2.05905
H          3.00926        1.58006        1.61303
H          4.14261        0.39747        0.93532
H          3.73339        1.87450        0.00613
H          0.59819       -2.62495        1.47590
H         -0.92747        3.99339       -0.99891
H         -0.77532        3.79569        0.80534
H          1.57111        3.28714        0.56233
H          1.44075        3.43965       -1.24836
