32
2032.log
C          2.95061        2.94271       -0.18415
C          1.96061        2.02520       -0.88202
P          1.71304        0.44657        0.06710
O          1.50160        0.83452        1.52451
Cl         3.57764       -0.30756       -0.00289
Rh        -0.01776       -0.95651       -0.55972
Cl         0.04505       -1.62017        1.80341
C         -3.12849        2.85766       -0.68868
C         -2.27974        1.73843       -1.27171
P         -1.48092        0.68991        0.02028
O         -0.94854        1.79766        1.02532
Cl        -3.08035        0.04212        1.01810
C         -0.16967       -3.08081       -1.22918
C         -1.44157       -2.42922       -1.04013
H          2.64616        3.10292        0.84853
H          3.94516        2.50143       -0.18052
H          3.00150        3.90657       -0.68702
H          0.97741        2.49864       -0.95290
H          2.28906        1.76917       -1.89047
H          0.79093       -0.56868        2.08899
H          0.91314       -2.12357       -0.97895
H          0.02556       -0.46128       -1.97453
H         -3.96584        2.45343       -0.12445
H         -3.52165        3.48417       -1.48649
H         -2.53269        3.47654       -0.02189
H         -1.46970        2.14126       -1.88408
H         -2.87360        1.07275       -1.90143
H         -0.03610        1.59668        1.35186
H          0.10072       -3.35113       -2.24572
H          0.10991       -3.84487       -0.50708
H         -2.04025       -2.74239       -0.18832
H         -2.03742       -2.24181       -1.92845
