46
2035.log
C         -3.71548       -1.55985       -0.94815
C         -3.52966       -0.46224        0.08963
P         -1.88475        0.39323       -0.02956
Cl        -1.95280        0.98222       -1.89786
N         -2.34942        1.85240        0.74361
C         -2.61377        1.70673        2.16368
C         -1.50188        3.00763        0.50717
Rh        -0.06997       -0.83570        0.65904
Cl        -0.36261       -2.01966       -1.40148
C          3.01844        0.89816        2.33897
C          2.31490        1.64959        1.22032
P          1.63650        0.50745       -0.07095
Cl         1.17328        1.92431       -1.43890
N          3.04645       -0.18746       -0.66943
C          2.89554       -1.20889       -1.69745
C          4.21929        0.62957       -0.94074
C          0.00706       -2.84242        1.66676
C          1.29352       -2.31461        1.34439
H         -3.73261       -1.14568       -1.95353
H         -2.90329       -2.28228       -0.89774
H         -4.65469       -2.08240       -0.77449
H         -3.61295       -0.89569        1.08942
H         -4.28879        0.31801       -0.02678
H         -3.08679        2.62156        2.52339
H         -3.29200        0.87540        2.33568
H         -1.69564        1.53636        2.74077
H         -2.03914        3.89992        0.83331
H         -1.28788        3.10099       -0.55486
H         -0.55511        2.95228        1.05822
H         -1.06828       -1.82480        1.27124
H         -0.01702       -0.10719        1.99216
H          3.80509        0.25820        1.94642
H          3.45612        1.59816        3.04865
H          2.30313        0.27381        2.86958
H          1.45207        2.18485        1.62515
H          2.96587        2.39200        0.75430
H          1.93569       -1.71131       -1.59733
H          2.94499       -0.77537       -2.70152
H          3.69791       -1.94284       -1.59400
H          5.05199       -0.04106       -1.15777
H          4.48942        1.23223       -0.07892
H          4.07297        1.28747       -1.80508
H         -0.26521       -2.91620        2.71591
H         -0.35778       -3.66632        1.06012
H          1.82847       -2.78354        0.52529
H          1.93549       -2.01408        2.16654
