36
2038.log
C         -3.04285       -2.71667       -0.03264
C         -2.64462       -1.76472        1.08830
P         -1.31436       -0.58931        0.57178
Cl        -1.50174        0.76676        1.99560
C         -2.09419        0.23702       -0.88674
Br        -3.89255        0.84630       -0.52068
Rh         0.74279       -1.50103        0.23089
Cl         0.34881       -1.32461       -2.11581
C          3.56352        2.12361       -1.51178
C          2.63303        0.91923       -1.50207
P          2.08757        0.32947        0.15749
Cl         3.83243        0.08224        1.07493
C          1.63997        1.92210        1.00639
Br         0.34607        2.88359       -0.04407
C          1.35213       -3.63983       -0.12883
C          2.43695       -2.71867       -0.17550
H         -2.16346       -3.10093       -0.55103
H         -3.67892       -2.21670       -0.75960
H         -3.59705       -3.56083        0.37161
H         -3.51085       -1.19625        1.44026
H         -2.23121       -2.31898        1.93789
H         -2.13326       -0.47974       -1.70695
H         -1.51151        1.10474       -1.19553
H          0.04649       -2.86460        0.22173
H          0.96055       -1.61969        1.73389
H          3.95407        2.26287       -2.51754
H          3.04152        3.03700       -1.23548
H          4.40665        1.97671       -0.83858
H          3.12003        0.05154       -1.95975
H          1.72845        1.11187       -2.08561
H          1.19051        1.71680        1.97908
H          2.51567        2.56296        1.12065
H          1.30854       -4.33511        0.70413
H          1.00807       -4.05560       -1.07153
H          2.86626       -2.50775       -1.15147
H          3.16735       -2.75728        0.62825
