48
2039.log
C          2.64482       -2.20867        1.56455
C          2.11303       -0.79241        1.74212
P          1.52401        0.00788        0.19597
C          3.04072       -0.17601       -0.94268
N          4.20264        0.37850       -0.28848
O          4.91746       -0.37569        0.33189
O          4.36557        1.57477       -0.37111
O          1.70288        1.50486        0.73710
C          1.51375        2.68381       -0.04909
Rh        -0.36951       -0.62652       -0.94048
Cl        -0.51573       -2.58975        0.43216
C         -1.51097       -0.29430        3.07999
C         -1.46026        0.88567        2.11298
P         -1.94034        0.33572        0.40985
C         -2.77811        1.89589       -0.23420
N         -1.78618        2.92223       -0.38186
O         -1.47493        3.54503        0.61121
O         -1.28195        3.06505       -1.47165
O         -3.38507       -0.33426        0.65124
C         -3.68951       -1.71041        0.87106
C         -0.67478       -1.92641       -2.74480
C         -1.88428       -1.38842       -2.20792
H          2.77864       -2.66754        2.54155
H          3.60753       -2.20915        1.06125
H          1.94004       -2.81736        1.00352
H          2.87385       -0.13314        2.16938
H          1.25534       -0.80102        2.41849
H          2.81943        0.39515       -1.84733
H          3.18886       -1.23431       -1.15674
H          0.97716        3.40483        0.56709
H          2.49198        3.08138       -0.31777
H          0.94266        2.47696       -0.95555
H          0.52329       -1.40219       -1.92100
H         -0.25846        0.60308       -1.81343
H         -1.02988       -1.17128        2.64837
H         -1.00862       -0.04346        4.01185
H         -2.54161       -0.55433        3.30923
H         -0.44913        1.29321        2.06234
H         -2.13408        1.67974        2.44383
H         -3.53110        2.18071        0.50162
H         -3.22180        1.65819       -1.20168
H         -4.40349       -2.02275        0.10736
H         -2.79975       -2.33935        0.82875
H         -4.15308       -1.80653        1.85340
H         -0.33975       -1.55908       -3.71005
H         -0.49114       -2.98599       -2.59044
H         -2.54753       -2.08212       -1.70119
H         -2.40231       -0.63411       -2.79427
