40
2042.log
C          3.86406       -1.61135       -1.03002
C          2.45785       -1.07313       -1.26773
C          1.45011       -2.19537       -1.46751
P          1.90314        0.05082        0.11966
Cl         3.39550        1.32396        0.22380
C          2.32964       -1.01261        1.58557
O          3.12199       -0.67339        2.41489
Rh        -0.14584        1.09090        0.13479
Cl        -0.28159        0.79028       -2.22033
C         -3.73904       -0.22084       -1.21634
C         -2.90352       -1.35156       -0.63317
C         -2.28840       -2.19449       -1.74217
P         -1.58641       -0.64991        0.49543
Cl        -0.83765       -2.32485        1.25203
C         -2.62839       -0.21914        1.96699
O         -3.70277        0.30702        1.93172
C         -0.68272        3.26606       -0.14535
C         -1.81557        2.44124        0.05217
H          3.89343       -2.24892       -0.14729
H          4.16967       -2.20530       -1.88963
H          4.58596       -0.80836       -0.90111
H          2.44697       -0.42702       -2.15497
H          0.45611       -1.77649       -1.60510
H          1.43865       -2.87659       -0.61897
H          1.70506       -2.76279       -2.36043
H          1.76589       -1.95871        1.66389
H          0.67031        2.35023       -0.09887
H         -0.02318        1.28460        1.64497
H         -3.12674        0.37505       -1.89032
H         -4.14930        0.41187       -0.43199
H         -4.56568       -0.63877       -1.78826
H         -3.52710       -1.98205        0.01734
H         -3.08140       -2.62476       -2.35106
H         -1.68616       -3.00910       -1.34323
H         -1.67099       -1.56777       -2.38326
H         -2.12209       -0.45351        2.92789
H         -0.38137        3.93782        0.65221
H         -0.50049        3.64574       -1.14643
H         -2.44458        2.24997       -0.80995
H         -2.35550        2.51896        0.99176
