38
2055.log
C          1.48534       -2.42575        2.36916
P          0.63438       -0.98488        1.62820
C         -0.06277       -0.28422        3.10640
N         -0.50397        0.20361        4.04366
C         -0.93996       -1.76061        1.02474
C         -0.68470       -2.60348       -0.21197
Br        -2.25161       -2.64469       -1.39006
Rh         1.91201        0.39231        0.34451
Cl         2.45613       -1.61280       -0.86286
C          0.45474        0.21745       -2.92402
P          0.48157        1.04629       -1.29477
C          0.82564        2.70176       -1.84558
N          1.04457        3.77184       -2.19002
C         -1.33458        1.29116       -1.01792
C         -1.58359        2.00480        0.29361
Br        -3.48448        1.96474        0.75415
C          4.11148        0.84363        0.46908
C          3.46843        1.42538       -0.66371
H          0.78248       -3.04679        2.92508
H          1.94307       -2.99843        1.56172
H          2.27067       -2.07077        3.03777
H         -1.37332       -2.35561        1.83587
H         -1.63887       -0.94697        0.80891
H          0.13702       -2.20168       -0.81024
H         -0.46341       -3.63953        0.03870
H          3.05799        0.10111        1.32864
H          1.56484        1.63457        1.14713
H         -0.01049       -0.76244       -2.81926
H          1.47857        0.07517       -3.26911
H         -0.10408        0.81575       -3.64369
H         -1.81100        0.30510       -1.02727
H         -1.74570        1.86339       -1.85602
H         -1.05739        1.52687        1.12469
H         -1.29291        3.05389        0.24342
H          4.46163        1.51078        1.25092
H          4.76374       -0.00749        0.29207
H          3.68281        0.98862       -1.63636
H          3.35913        2.50638       -0.68605
