44
2057.log
C         -3.64392        0.15314        1.99064
C         -3.64985       -0.76340        0.77872
O         -3.13355       -0.13277       -0.38249
P         -1.57555        0.16411       -0.64611
C         -1.74911        0.44371       -2.43579
C         -1.38760        1.91868       -0.03553
Cl        -2.77564        2.89976       -0.52662
Rh        -0.02768       -1.31642        0.14450
Cl         0.70839       -1.70628       -2.08959
C          1.07432        0.93584        3.40397
C          1.90158        1.76391        2.43632
O          1.53448        1.57603        1.07750
P          1.67450        0.19171        0.24616
C          3.35262       -0.41834        0.67770
C          2.06993        0.97616       -1.38522
Cl         3.30638        2.22454       -1.20901
C         -0.08706       -3.53871        0.40939
C          1.16147       -2.94179        0.77646
H         -4.11049        1.10349        1.74399
H         -4.19128       -0.31075        2.80669
H         -2.61828        0.32851        2.30926
H         -3.06902       -1.67060        0.99620
H         -4.67256       -1.04752        0.51370
H         -1.88453       -0.52450       -2.91509
H         -0.84996        0.90260       -2.83870
H         -2.62055        1.07262       -2.61096
H         -0.48444        2.37020       -0.44494
H         -1.32884        1.94009        1.05244
H         -1.06599       -2.43715       -0.02717
H         -0.47578       -1.07672        1.57263
H          1.38604        1.14334        4.42414
H          1.20968       -0.12327        3.19335
H          0.01884        1.17338        3.30025
H          1.74700        2.83248        2.61666
H          2.96578        1.54153        2.56860
H          4.06438        0.40620        0.64023
H          3.34486       -0.86832        1.66921
H          3.62851       -1.17749       -0.05055
H          2.43722        0.20991       -2.06692
H          1.18187        1.44272       -1.81235
H         -0.69849       -3.96562        1.19992
H         -0.10966       -4.10904       -0.51485
H          1.99924       -3.12428        0.11006
H          1.43086       -2.95791        1.83009
