48
208.log
C          2.47622        1.47811       -3.29018
C          1.58447        1.83438       -2.10557
N          2.05472        1.31000       -0.83805
P          1.70836       -0.24473       -0.30291
C          2.94021       -1.39104       -1.07421
C          2.50120       -0.10447        1.36998
C          3.87242        0.25890        1.21513
N          4.96510        0.55572        1.04210
Rh        -0.43655       -1.03064       -0.39598
Cl         0.05636       -2.13181        1.66400
C         -4.96169        1.54911       -1.12888
C         -3.46346        1.31309       -1.00928
N         -3.12044        0.99621        0.37433
P         -1.49961        0.64164        0.73019
C         -1.67566        0.48441        2.53843
C         -0.88269        2.40386        0.60947
C          0.23983        2.59848        1.46708
N          1.12320        2.74296        2.18077
C         -1.24566       -2.99444       -1.08873
C         -2.23339       -2.15287       -0.48967
H          2.11067        1.96330       -4.19158
H          3.49762        1.80684       -3.10856
H          2.47824        0.40304       -3.45082
H          0.57968        1.43387       -2.27072
H          1.52195        2.92550       -2.01363
H          3.01148        1.59432       -0.64119
H          2.93332       -2.32998       -0.52134
H          3.93976       -0.95628       -1.04261
H          2.65787       -1.59400       -2.10668
H          2.40307       -1.07235        1.86965
H          1.98201        0.65966        1.95516
H          0.12814       -2.24244       -1.14298
H         -0.73580       -0.36161       -1.72873
H         -5.21335        1.85448       -2.14079
H         -5.27552        2.32845       -0.43895
H         -5.51166        0.63954       -0.89546
H         -3.15158        0.52104       -1.70444
H         -2.92218        2.22279       -1.28174
H         -3.70038        0.22393        0.69875
H         -0.68954        0.50828        2.99900
H         -2.12795       -0.47937        2.76854
H         -2.29560        1.29569        2.91874
H         -0.59418        2.62153       -0.42074
H         -1.70677        3.05237        0.92225
H         -1.32485       -3.19090       -2.15428
H         -0.90125       -3.84705       -0.51075
H         -2.58672       -2.44004        0.49789
H         -3.02025       -1.77416       -1.13757
