46
2084.log
C         -3.14759       -0.31471       -1.75129
C         -2.92274        0.42007       -0.43804
N         -4.12178        0.60544        0.34624
Cl        -5.11854        1.93832       -0.24428
P         -1.70388       -0.41381        0.72571
C         -1.68918        0.87804        2.02413
C         -2.74566       -1.67687        1.55621
Rh         0.21314       -1.19087       -0.26397
Cl         0.15473        0.82371       -1.58286
C          1.79558        2.43170        1.03525
C          2.68579        1.21859        0.80674
N          3.13256        1.03393       -0.55233
Cl         4.29810        2.25099       -1.04909
P          1.87199       -0.43182        1.12499
C          1.57570       -0.32282        2.93703
C          3.38488       -1.46317        1.15540
C          0.43300       -2.31588       -2.19349
C          1.67739       -2.00541       -1.56642
H         -3.40934       -1.35928       -1.57651
H         -3.95729        0.16317       -2.30238
H         -2.25110       -0.26559       -2.36368
H         -2.48170        1.40405       -0.63409
H         -4.71403       -0.21739        0.25244
H         -1.00568        1.67507        1.73820
H         -1.36393        0.43240        2.96216
H         -2.69826        1.27248        2.13150
H         -3.58715       -1.21273        2.06469
H         -3.09306       -2.40955        0.83002
H         -2.11610       -2.19161        2.28026
H         -0.72621       -1.85569       -1.27802
H          0.18867       -2.46185        0.56120
H          2.33600        3.33720        0.76223
H          1.50134        2.50593        2.08019
H          0.90879        2.35899        0.40791
H          3.57140        1.26432        1.45686
H          2.31861        1.15239       -1.17074
H          2.50207       -0.06136        3.44749
H          0.81771        0.42240        3.15848
H          1.22741       -1.29393        3.28472
H          3.10278       -2.49633        1.34993
H          3.87799       -1.39394        0.18910
H          4.06095       -1.11536        1.93536
H          0.13548       -3.35965       -2.24283
H          0.16353       -1.74584       -3.07861
H          2.28938       -1.23243       -2.02120
H          2.24732       -2.83599       -1.16088
