50
2108.log
C          2.00709       -1.36872        2.03281
C          2.65889       -0.64438        0.86946
N          3.65156       -1.48219        0.24972
N          4.94226       -1.12430        0.10494
O          5.23790        0.01942        0.34118
O          5.68015       -1.99944       -0.28240
P          1.44522        0.00020       -0.42574
C          0.89512       -1.53253       -1.26202
C          2.68253        0.61316       -1.62373
Rh        -0.02420        1.57993        0.28714
Cl        -0.39902        1.45087       -2.07647
C         -3.52230        0.29526       -1.54064
C         -2.69253       -0.65844       -0.69825
N         -3.49294       -1.77961       -0.27913
N         -3.04193       -3.03984       -0.27106
O         -3.86069       -3.89411       -0.02446
O         -1.86190       -3.21190       -0.47723
P         -1.86764        0.20714        0.76570
C         -1.52532       -1.23025        1.85851
C         -3.36569        0.79253        1.67130
C         -0.48159        3.77722        0.90262
C         -1.56552        3.30499        0.21606
H          1.26724       -0.71288        2.48253
H          1.51962       -2.28200        1.69727
H          2.74940       -1.62624        2.78635
H          3.18021        0.25164        1.23083
H          3.47240       -2.47272        0.14536
H          0.40383       -1.22733       -2.18548
H          0.19755       -2.11591       -0.66537
H          1.76544       -2.13770       -1.51175
H          3.37005        1.29197       -1.11966
H          3.23369       -0.22166       -2.05625
H          2.16920        1.14962       -2.41876
H          1.22466        2.38864        0.06941
H          0.37675        1.50351        1.74215
H         -3.89677       -0.21471       -2.42630
H         -4.36765        0.69261       -0.98318
H         -2.88579        1.11492       -1.86792
H         -1.86985       -1.05045       -1.30702
H         -4.49421       -1.67577       -0.17837
H         -2.43413       -1.78363        2.09128
H         -0.79838       -1.89592        1.40268
H         -1.10993       -0.83898        2.78581
H         -3.03416        1.25367        2.60139
H         -4.01450       -0.05013        1.90729
H         -3.92697        1.52731        1.09923
H         -0.49556        3.83857        1.98426
H          0.24429        4.41453        0.41316
H         -1.69064        3.54135       -0.83475
H         -2.46761        3.04280        0.75040
