32
2110.log
C         -4.02406        0.25077       -1.01492
C         -3.49761        0.00188        0.38779
P         -1.67103       -0.23477        0.41401
O         -1.48130       -0.68966        1.92098
Br        -1.58743       -2.16765       -0.64407
Rh        -0.24290        1.38102       -0.32681
Cl         0.37128        1.74620        2.01052
C          3.83450       -1.11265       -1.61547
C          2.45844       -0.50504       -1.83930
P          1.64320        0.09534       -0.30782
O          2.85821        0.85159        0.38142
Br         1.62392       -1.77847        0.88495
C         -0.45954        3.57642       -0.67831
C          0.85539        3.07104       -0.93236
H         -3.49259        1.08288       -1.47882
H         -3.89017       -0.63065       -1.64002
H         -5.08438        0.49172       -0.98608
H         -3.69849        0.85963        1.03790
H         -3.95464       -0.88310        0.84198
H         -0.75185       -0.21367        2.35895
H         -1.37931        2.42103       -0.28119
H         -0.57085        1.06246       -1.77077
H          3.77133       -2.01092       -1.00428
H          4.27651       -1.38365       -2.57185
H          4.49194       -0.40112       -1.12031
H          2.52038        0.36721       -2.49657
H          1.77573       -1.22354       -2.30315
H          2.53841        1.33672        1.16224
H         -1.04272        3.91966       -1.52726
H         -0.59841        4.18190        0.21340
H          1.63573        3.35107       -0.22886
H          1.19446        3.05680       -1.96489
