46
2112.log
C         -3.17881        3.52535       -1.55672
C         -2.91012        2.85289       -0.21701
C         -2.93195        1.33262       -0.35001
N         -2.55678        0.70785        0.90799
P         -1.67981       -0.69371        1.03895
C         -1.51731       -0.71894        2.86619
Cl        -3.04217       -2.18961        0.85031
Rh         0.22576       -1.10614       -0.21615
Cl        -0.89700       -0.65654       -2.26841
C          5.63330        0.12676       -0.07132
C          4.91262        0.87203        1.04706
C          3.41841        0.56450        1.09371
N          2.72758        1.20527       -0.01991
P          1.06449        0.96702       -0.16234
C          0.74282        2.13408       -1.54659
Cl         0.47099        2.00290        1.41471
C          0.76617       -3.15122       -1.16836
C          1.71051       -2.01127       -1.32695
H         -3.13836        4.60730       -1.45694
H         -4.16264        3.25047       -1.92998
H         -2.43962        3.21577       -2.29151
H         -1.93552        3.15810        0.16819
H         -3.66498        3.16495        0.50962
H         -3.92754        1.00285       -0.67278
H         -2.21360        1.01134       -1.10706
H         -3.22725        0.87303        1.65145
H         -0.87918        0.10736        3.16875
H         -2.49528       -0.63079        3.33731
H         -1.05531       -1.65685        3.16621
H         -0.14107       -2.73997       -0.50585
H          0.97641       -1.44365        1.06366
H          6.70107        0.32587       -0.02769
H          5.48135       -0.94605        0.02725
H          5.27652        0.43656       -1.05134
H          5.34964        0.58601        2.00506
H          5.04659        1.94784        0.92234
H          3.26017       -0.52291        1.09681
H          2.98449        0.97010        2.01142
H          3.17041        0.94788       -0.89758
H          0.31950        3.06004       -1.16487
H          1.68033        2.34414       -2.05660
H          0.04670        1.66776       -2.24100
H          1.15834       -3.99962       -0.60909
H          0.29202       -3.47288       -2.09453
H          1.80598       -1.64143       -2.34787
H          2.69113       -2.16387       -0.87483
