38
212.log
C          3.11822       -2.46586       -0.05906
C          2.83165       -1.28055        0.84975
P          1.65692       -0.06396        0.10508
Cl         1.62523        1.25149        1.57746
C          2.77935        0.80041       -1.11396
C          3.99848        1.20639       -0.48918
N          4.96387        1.50666        0.04638
Rh        -0.36393       -0.78608       -0.65227
Cl        -0.33868       -1.89616        1.46659
C         -3.36754       -0.39580        2.05284
C         -2.40008        0.76627        1.88457
P         -1.69527        0.85907        0.17910
Cl        -3.33240        1.18767       -0.88547
C         -1.08005        2.62995        0.28646
C         -0.16392        2.87576       -0.78156
N          0.58095        3.03834       -1.63472
C         -0.93236       -2.72564       -1.64007
C         -2.04520       -1.89527       -1.30734
H          3.85350       -3.11728        0.40812
H          2.21023       -3.04451       -0.22137
H          3.51060       -2.14645       -1.02365
H          3.75185       -0.73868        1.09392
H          2.37021       -1.62854        1.77805
H          2.97779        0.10552       -1.93387
H          2.24509        1.66997       -1.51233
H          0.35897       -1.98171       -1.29018
H         -0.28149       -0.05477       -1.98096
H         -3.79299       -0.38173        3.05395
H         -2.84214       -1.33906        1.92203
H         -4.18038       -0.33568        1.33078
H         -2.89726        1.71933        2.09413
H         -1.55291        0.64404        2.56442
H         -0.56424        2.76652        1.24026
H         -1.93448        3.30944        0.21896
H         -0.70594       -2.87272       -2.69198
H         -0.77039       -3.60895       -1.02804
H         -2.67201       -2.21518       -0.47903
H         -2.59772       -1.44250       -2.12610
