46
2121.log
C          1.07997        3.40594       -0.58610
P          0.75989        1.81118        0.25740
C          1.02720        2.25131        2.01191
C         -1.08406        1.73727        0.23643
O         -1.70820        1.04414        1.00955
O         -1.59400        2.45275       -0.73949
C         -3.02505        2.29497       -1.03082
N         -3.90362        2.68466        0.00524
Rh         1.64213       -0.11962       -0.56341
Cl         2.94725       -0.36658        1.42961
C         -0.13531       -1.50865        2.18744
P          0.05659       -1.46982        0.37038
C          0.18095       -3.27058        0.01359
C         -1.70596       -1.27629       -0.19397
O         -2.03519       -0.77722       -1.23766
O         -2.52363       -1.83550        0.67758
C         -3.95870       -1.74608        0.40777
N         -4.40715       -2.44385       -0.73703
C          3.50328       -0.53475       -1.71748
C          2.73058       -1.70420       -1.42041
H          2.14090        3.63553       -0.48639
H          0.48794        4.20667       -0.14407
H          0.83360        3.30511       -1.64153
H          2.10172        2.29769        2.18601
H          0.61556        1.46336        2.64036
H          0.55915        3.20810        2.24523
H         -3.17200        2.91937       -1.91427
H         -3.17941        1.24102       -1.27783
H         -3.78679        3.65701        0.26418
H         -3.78733        2.10185        0.82695
H          2.78126        0.70618       -1.18162
H          0.81959        0.02193       -1.83193
H          0.86479       -1.53914        2.61944
H         -0.70971       -2.38201        2.49038
H         -0.64402       -0.60250        2.51028
H         -0.64898       -3.80409        0.47714
H          1.12298       -3.63005        0.42551
H          0.17710       -3.43359       -1.06321
H         -4.41379       -2.15935        1.31083
H         -4.20519       -0.68453        0.30619
H         -4.18092       -3.43040       -0.69899
H         -4.02517       -2.04296       -1.58643
H          3.56651       -0.21991       -2.75555
H          4.43002       -0.40210       -1.16588
H          3.13915       -2.38015       -0.67398
H          2.25283       -2.21119       -2.25500
