50
2126.log
C         -4.06032       -0.00080       -1.26044
C         -3.79677       -0.28575        0.20918
P         -2.06435        0.11112        0.74469
C         -2.12784        1.96833        0.69644
C         -1.37808        2.55073       -0.46451
O         -0.20116        2.80575       -0.44745
O         -2.17775        2.83102       -1.48915
O         -2.24059        0.08759        2.36672
C         -2.31558       -1.12126        3.09574
Rh        -0.41818       -1.13566       -0.23755
Cl        -0.70936        0.26144       -2.14341
C          2.62309        1.67297        2.42100
C          1.27578        1.21342        1.88041
P          1.41339        0.05365        0.44264
C          2.25728        1.09479       -0.83724
C          3.71980        0.79776       -0.88256
O          4.58257        1.40589       -0.30691
O          3.98602       -0.25187       -1.66812
O          2.72303       -0.82805        0.83962
C          2.66062       -1.87333        1.78764
C         -0.49715       -2.86735       -1.66077
C          0.82694       -2.38851       -1.38572
H         -5.06771       -0.31124       -1.53207
H         -3.95063        1.05904       -1.47537
H         -3.35108       -0.53724       -1.88680
H         -3.94993       -1.35078        0.41772
H         -4.47318        0.28866        0.85161
H         -3.17462        2.27016        0.65232
H         -1.67084        2.29636        1.63092
H         -1.65354        3.05676       -2.27437
H         -2.07526       -0.88064        4.13153
H         -1.59814       -1.85363        2.71357
H         -3.32099       -1.54496        3.04759
H         -1.48978       -2.08196       -0.82785
H         -0.28805       -2.04801        0.96741
H          3.16495        0.85276        2.88587
H          2.47670        2.45085        3.16838
H          3.24555        2.07245        1.62432
H          0.68670        0.71089        2.65473
H          0.70119        2.06612        1.51988
H          1.79775        0.85381       -1.79723
H          2.06496        2.13955       -0.59832
H          4.93471       -0.45322       -1.64948
H          3.57162       -2.46037        1.66746
H          2.61528       -1.48150        2.80648
H          1.78787       -2.51000        1.61678
H         -0.75969       -3.85902       -1.30156
H         -0.90986       -2.63813       -2.63947
H          1.33177       -1.84061       -2.17660
H          1.49216       -3.04564       -0.83243
