48
2127.log
C          2.95114        3.53518       -1.46857
C          2.35128        2.13988       -1.37766
C          2.70836        1.43553       -0.10713
O          3.42671        1.84680        0.75964
P          1.96010       -0.29465        0.05057
C          3.21811       -0.95609       -1.01232
N          4.02632       -1.37421       -1.70990
C          2.68399       -0.86719        1.64322
C          1.97988       -0.27329        2.85599
Rh        -0.09701       -0.94955       -0.71754
Cl        -0.19740       -2.42364        1.14837
C         -4.29403        2.41495       -1.39590
C         -3.44450        1.14684       -1.48861
C         -3.27474        0.52078       -0.12781
O         -4.17614        0.13808        0.56333
P         -1.49389        0.41448        0.45750
C         -1.82241       -0.04624        2.13911
N         -2.01631       -0.28180        3.24247
C         -1.27687        2.23719        0.75791
C         -0.10828        2.51658        1.69130
C         -0.66577       -2.72752       -1.97244
C         -1.78683       -1.97275       -1.54229
H          4.03479        3.48187       -1.40481
H          2.67778        4.00400       -2.40987
H          2.59450        4.15481       -0.64923
H          1.25863        2.16571       -1.44599
H          2.69797        1.50611       -2.20151
H          2.58144       -1.95729        1.64240
H          3.74616       -0.59953        1.63481
H          2.37620       -0.72393        3.76296
H          0.91108       -0.48043        2.81680
H          2.13890        0.80164        2.90999
H          0.69898       -1.98647       -1.50287
H         -0.03939       -0.00587       -1.91968
H         -5.23886        2.19201       -0.90664
H         -3.78250        3.18685       -0.82579
H         -4.49840        2.79961       -2.39175
H         -3.96689        0.42576       -2.12270
H         -2.46385        1.35580       -1.92593
H         -1.11804        2.71525       -0.21334
H         -2.20432        2.62301        1.19319
H          0.05282        3.58869        1.78746
H          0.80599        2.06465        1.30667
H         -0.30199        2.10691        2.68104
H         -0.41301       -2.71684       -3.02820
H         -0.46620       -3.67031       -1.47243
H         -2.40687       -2.39107       -0.75364
H         -2.33767       -1.41666       -2.29547
