42
2137.log
C          1.48470        2.45607        1.10251
C          1.98766        2.11198       -0.29234
C          3.40183        2.62873       -0.54016
P          1.82944        0.29412       -0.61236
O          2.65822        0.24496       -1.98423
N          3.13280       -0.41621        0.46162
O          3.70476        0.22950        1.29630
O          3.37717       -1.55920        0.13844
Rh         0.01416       -1.05013       -0.39553
Cl         0.57587       -0.78724        1.91423
C         -2.90178       -0.07069        2.15209
C         -2.37337        1.13087        1.38478
C         -3.44735        2.18400        1.13395
P         -1.53646        0.59062       -0.20101
O         -1.19925        1.97249       -0.92079
N         -3.05967        0.24767       -1.11392
O         -3.35432        1.05699       -1.97845
O         -3.69768       -0.73307       -0.82032
C         -0.11366       -3.28697       -0.13656
C         -1.36225       -2.62607        0.00887
H          0.48445        2.05060        1.25015
H          2.14132        2.03741        1.86148
H          1.44450        3.53579        1.23047
H          1.30933        2.54842       -1.03798
H          3.75722        2.34303       -1.52689
H          4.09021        2.24934        0.21061
H          3.39746        3.71503       -0.47843
H          2.51370       -0.55901       -2.49300
H          0.98415       -2.22188       -0.51531
H         -0.25000       -1.14517       -1.89320
H         -3.62809       -0.62792        1.56249
H         -3.38595        0.26387        3.06732
H         -2.07795       -0.72647        2.42439
H         -1.55291        1.57962        1.95870
H         -3.06500        3.01281        0.54031
H         -4.31426        1.75777        0.63138
H         -3.78335        2.58510        2.08818
H         -1.89566        2.16911       -1.58324
H          0.04097       -3.91142       -1.01077
H          0.37506       -3.65253        0.76164
H         -1.77090       -2.55098        1.01115
H         -2.11396       -2.76588       -0.76265
