46
2139.log
C          0.50716       -1.10449        2.84393
P          1.35715       -0.53565        1.31477
C          2.94402       -0.01960        2.07700
C          1.75253       -2.22562        0.65521
C          2.52772       -2.26617       -0.65084
O          3.86172       -1.76285       -0.47712
C          4.14219       -0.63589       -0.98309
N          4.44961        0.38024       -1.41386
Rh         0.46007        0.98948       -0.13847
Cl        -0.24457       -0.78127       -1.60806
C         -2.52568        2.83171        0.11176
P         -1.69011        1.27755        0.61611
C         -2.03987        1.36707        2.41955
C         -3.01194        0.10369        0.06959
C         -2.74127       -1.33553        0.47343
O         -3.85775       -2.19015        0.19325
C         -4.32263       -2.21598       -0.99031
N         -4.81053       -2.27230       -2.02389
C          1.42343        1.95150       -1.92938
C          0.08254        2.36484       -1.72758
H         -0.43543       -1.58596        2.59167
H          1.14070       -1.81140        3.37930
H          0.31787       -0.24205        3.48002
H          2.72838        0.79611        2.76594
H          3.40087       -0.84591        2.62117
H          3.63179        0.35248        1.32040
H          0.79246       -2.71684        0.47569
H          2.29655       -2.77497        1.43004
H          2.64323       -3.30282       -0.98372
H          1.99529       -1.70225       -1.42267
H          1.85522        0.93636       -0.74564
H          0.90294        2.11748        0.77311
H         -1.92660        3.67664        0.44723
H         -3.51712        2.88914        0.55986
H         -2.61676        2.87074       -0.97165
H         -1.39194        2.12723        2.85227
H         -3.08112        1.64094        2.58467
H         -1.83482        0.41849        2.90701
H         -3.06489        0.16160       -1.02260
H         -3.96796        0.43861        0.48680
H         -2.60713       -1.43061        1.55404
H         -1.85149       -1.70533       -0.04989
H          2.22479        2.65804       -1.74047
H          1.63134        1.26277       -2.74254
H         -0.66529        1.98459       -2.41835
H         -0.08621        3.38884       -1.40704
