40
2140.log
C          3.60431       -0.46375        0.54446
P          1.90362        0.16151        0.34095
C          1.25740        0.14274        2.07038
O          0.15502        0.58121        2.32881
C          2.17320        1.96073        0.02360
C          2.53610        2.20198       -1.43255
F          2.84926        3.52390       -1.62708
Rh         0.36285       -1.10285       -0.69417
Cl         0.86359       -2.10475        1.47206
C         -2.44867       -0.28564        1.68612
P         -1.43068        0.17384        0.22838
C         -1.25732        2.72091        1.22812
O         -1.18222        1.86270        0.30919
C         -2.70704        0.38324       -1.12681
C         -4.07297        0.92960       -0.74170
F         -3.97243        1.98398        0.12857
C         -0.77980       -2.37401       -2.16804
C         -1.09722       -2.78168       -0.89341
H          4.12733       -0.41671       -0.40933
H          3.56473       -1.50167        0.87278
H          4.12839        0.14263        1.28486
H          1.97891       -0.11509        2.86390
H          1.26087        2.51001        0.27282
H          2.97946        2.31277        0.67639
H          3.41716        1.62526       -1.73535
H          1.69545        1.96797       -2.09339
H          1.51848       -1.85780       -1.30485
H          0.36089       -0.25614       -1.93657
H         -2.35721       -1.35632        1.85479
H         -3.49181       -0.01076        1.56453
H         -2.03632        0.22656        2.55434
H         -1.56610        2.32315        2.21886
H         -2.86572       -0.57406       -1.62172
H         -2.22447        1.05875       -1.83972
H         -4.60263        1.30268       -1.62586
H         -4.69425        0.17368       -0.24725
H         -1.46921       -1.77607       -2.75250
H         -0.07103       -2.94064       -2.75938
H         -0.62257       -3.66298       -0.47254
H         -2.05542       -2.52321       -0.45065
