48
2155.log
C          3.38707       -2.17283       -0.42263
P          2.20901       -0.79452       -0.71123
C          2.58178       -0.43605       -2.47357
C          3.15525        0.54707        0.14392
N          2.27836        1.68406        0.30238
C          2.89800        2.84411        0.90575
O          2.00507        3.91790        0.90809
Rh         0.06073       -1.21483       -0.03364
Cl         0.72354       -0.43799        2.13792
C         -1.20331        2.02718        0.81405
P         -0.91798        0.80662       -0.51816
C         -0.14403        1.86896       -1.79958
C         -2.63010        0.73574       -1.23873
N         -3.61001        0.67430       -0.17804
C         -4.96491        0.48485       -0.64833
O         -5.85141        0.42870        0.42401
C         -0.77741       -3.01887        0.97725
C         -1.73382       -1.97177        0.81113
H          4.40094       -1.86673       -0.68159
H          3.09502       -3.02935       -1.02893
H          3.34900       -2.45314        0.62958
H          3.65686       -0.47421       -2.64431
H          2.08580       -1.18328       -3.08978
H          2.20330        0.54642       -2.74035
H          4.01648        0.82673       -0.47644
H          3.52390        0.15277        1.10579
H          1.51823        1.36801        0.91306
H          3.18592        2.69298        1.95798
H          3.80565        3.08676        0.32443
H          1.68605        4.04682        0.00670
H          0.59805       -2.60052        0.32469
H         -0.32879       -1.72350       -1.41121
H         -1.95476        2.74356        0.48609
H         -0.27461        2.54002        1.05477
H         -1.55356        1.51111        1.70545
H         -0.68216        2.81320       -1.87453
H         -0.17616        1.35005       -2.75618
H          0.89054        2.04696       -1.51087
H         -2.81160        1.65252       -1.81364
H         -2.68633       -0.11906       -1.93578
H         -3.37470       -0.07721        0.46498
H         -5.10938       -0.45635       -1.20759
H         -5.20180        1.32669       -1.32251
H         -5.69459        1.19853        0.98376
H         -0.91154       -3.92733        0.39694
H         -0.39647       -3.19369        1.97963
H         -2.02955       -1.44033        1.71263
H         -2.54752       -2.15857        0.11447
