48
2157.log
C          4.90537       -1.44782        0.58394
C          5.03544       -0.58519       -0.67730
C          3.65125       -0.36361       -1.20922
O          3.07213       -1.05131       -2.00752
O          3.04591        0.68858       -0.63517
P          1.41056        0.76102       -0.79709
C          1.30862        1.71165       -2.36526
C          1.18911        2.09079        0.46843
O          0.12615        2.32272        1.00205
O          2.27475        2.81041        0.67013
Rh         0.16310       -0.94724        0.00358
Cl         1.55570       -0.21879        1.86476
C         -5.50478       -1.52079       -1.67455
C         -4.82933       -1.38650       -0.31745
C         -3.58406       -0.54278       -0.38943
O         -3.16030        0.00345       -1.37611
O         -2.96760       -0.43092        0.78433
P         -1.50590        0.41964        0.76560
C         -1.67322        0.83544        2.53259
C         -2.23757        1.92027       -0.07354
O         -3.24474        2.43131        0.32900
O         -1.54642        2.34124       -1.11661
C          0.56385       -3.08235        0.42846
C         -0.64878       -2.59486        1.01619
H          4.22674       -0.97892        1.29331
H          5.87758       -1.56872        1.05377
H          4.51585       -2.42997        0.32663
H          5.63860       -1.09675       -1.42728
H          5.48104        0.37639       -0.42453
H          1.94940        2.59186       -2.30791
H          0.27615        1.98903       -2.54701
H          1.64795        1.05503       -3.16514
H          2.14411        3.45741        1.38610
H          1.20623       -1.97225       -0.43883
H         -0.61585       -1.27147       -1.24427
H         -5.78352       -0.54102       -2.05225
H         -6.39726       -2.13547       -1.59334
H         -4.82441       -1.97615       -2.38890
H         -4.54729       -2.36359        0.08107
H         -5.49800       -0.91951        0.40935
H         -2.46272        1.57847        2.63678
H         -1.94607       -0.07967        3.05577
H         -0.73516        1.21589        2.92049
H         -2.00814        3.08122       -1.55088
H          0.48179       -3.81515       -0.36878
H          1.40390       -3.25944        1.09593
H         -0.65427       -2.45119        2.09480
H         -1.58731       -2.98025        0.62724
