50
2167.log
C         -3.59266        3.57612       -0.18514
C         -3.50272        2.61979       -1.36793
C         -3.46998        1.15733       -0.92393
C         -2.18335        0.77600       -0.27031
O         -1.25901        1.52088       -0.04029
P         -1.97679       -0.99015        0.31978
C         -3.43016       -1.95459       -0.22373
N         -2.62826       -0.51055        1.97975
O         -3.82835       -0.41490        2.12954
O         -1.78290       -0.16816        2.77470
Rh         0.20515       -1.51344        0.00147
Cl        -1.02929       -0.92286       -2.03032
C          5.95112        1.29728        0.74759
C          5.26463        0.45238       -0.31862
C          3.80073        0.84940       -0.51286
C          2.91505        0.41568        0.61387
O          3.28253       -0.07074        1.64708
P          1.02237        0.58186        0.44238
C          0.78652        1.53514        1.96949
N          1.09038        1.83325       -0.84654
O          1.15426        2.99724       -0.53962
O          1.17068        1.38476       -1.96738
C          1.11797       -3.33022       -0.91362
C          1.98265       -2.18893       -0.91047
H         -2.71376        3.48492        0.44745
H         -4.47694        3.36557        0.41359
H         -3.65201        4.60259       -0.53705
H         -2.60182        2.83588       -1.94458
H         -4.36559        2.76297       -2.02118
H         -4.26938        0.96065       -0.19992
H         -3.62464        0.48901       -1.77446
H         -3.38778       -2.11526       -1.29782
H         -4.35226       -1.44930        0.05978
H         -3.38726       -2.91998        0.28358
H         -0.18128       -2.98620       -0.20634
H          0.69938       -1.87620        1.37756
H          5.91689        2.35190        0.48164
H          5.46357        1.16354        1.70917
H          6.99266        1.00282        0.84752
H          5.78625        0.57135       -1.27031
H          5.31426       -0.60032       -0.03442
H          3.40122        0.43388       -1.44266
H          3.72250        1.93975       -0.59203
H         -0.23187        1.41494        2.33124
H          0.99568        2.58647        1.76668
H          1.47256        1.13400        2.71392
H          1.39235       -4.16840       -0.28021
H          0.69079       -3.62927       -1.86781
H          2.14759       -1.69308       -1.86496
H          2.86025       -2.22815       -0.27228
