30
218.log
C         -0.91270       -2.57821        1.01583
P         -1.49109       -1.18253       -0.01513
F         -1.79608       -2.06236       -1.34800
C         -3.24193       -1.08717        0.56238
Br        -4.25440        0.05694       -0.61563
Rh        -0.33425        0.75693       -0.18136
Cl        -0.85176        0.53279        2.16101
C          2.42523       -0.25324        1.83655
P          1.70561       -0.14076        0.16768
F          1.90345       -1.69298       -0.26764
C          3.08469        0.54214       -0.85203
Br         4.80330       -0.27075       -0.47491
C         -0.99532        2.88638       -0.16417
C          0.41198        2.72718        0.01120
H          0.04539       -2.92927        0.63921
H         -0.80373       -2.25332        2.04660
H         -1.63966       -3.38714        0.94762
H         -3.70155       -2.07614        0.53093
H         -3.28998       -0.66171        1.56304
H         -1.65047        1.48483       -0.43772
H         -0.10891        0.75741       -1.67870
H          1.65786       -0.60975        2.52208
H          3.27507       -0.93440        1.83607
H          2.73303        0.74082        2.15635
H          3.18286        1.61214       -0.67413
H          2.86160        0.36183       -1.90431
H         -1.34768        3.34169       -1.08420
H         -1.58580        3.14994        0.70905
H          0.81060        2.91362        1.00618
H          1.05537        3.07863       -0.79135
