42
220.log
C          2.96939        1.87802       -1.66165
C          2.53413        1.94873       -0.21588
Cl         1.08321        2.96919       -0.07243
P          1.99711        0.30775        0.48647
C          1.90052        0.76921        2.25500
C          3.61462       -0.56007        0.51550
Rh         0.36698       -0.89404       -0.56276
Cl         0.72850       -2.27501        1.37028
C         -2.23663        2.04833       -1.24751
C         -2.74609        0.71846       -0.73390
Cl        -4.32426        0.95765        0.06889
P         -1.54885       -0.12184        0.42235
C         -2.60243       -1.43309        1.13929
C         -1.51877        1.05237        1.82195
C          0.60589       -2.68074       -1.88290
C         -0.75254       -2.40685       -1.53043
H          3.91569        1.34486       -1.73319
H          2.21974        1.34557       -2.24757
H          3.09898        2.87559       -2.07803
H          3.30004        2.41345        0.41365
H          1.57044       -0.10859        2.80846
H          2.88977        1.06892        2.60240
H          1.19672        1.58372        2.40636
H          3.92394       -0.82562       -0.49450
H          4.37659        0.06193        0.98589
H          3.47977       -1.47451        1.09206
H          1.52615       -1.58452       -1.29372
H          0.20018        0.02636       -1.75077
H         -1.24840        1.90353       -1.68074
H         -2.90243        2.44988       -2.00906
H         -2.15680        2.77154       -0.43932
H         -2.93576        0.03065       -1.56485
H         -3.06881       -2.01311        0.34408
H         -1.95927       -2.08678        1.72852
H         -3.37044       -0.99777        1.77612
H         -0.94220        1.93701        1.55989
H         -2.53950        1.33441        2.08000
H         -1.05314        0.54737        2.66754
H          0.89945       -2.54479       -2.92006
H          1.08026       -3.53333       -1.40460
H         -1.21464       -3.09011       -0.82392
H         -1.41961       -2.07965       -2.32384
