40
2202.log
C          2.30226        1.51606       -1.76719
N          2.72569        0.37309       -1.00244
F          4.03412        0.66744       -0.47470
P          1.73239       -0.20110        0.26656
C          2.80120       -1.57708        0.82572
C          2.01553        0.96160        1.66395
Rh        -0.32073       -0.96240       -0.42012
Cl        -0.67395       -1.25707        1.94206
C         -1.25675        2.18535        1.97771
N         -1.33280        2.30750        0.54024
F         -0.06200        2.77213        0.05521
P         -1.65940        0.88526       -0.37676
C         -2.01304        1.75016       -1.95060
C         -3.35984        0.65755        0.26647
C         -0.95901       -3.07172       -0.76890
C         -2.03091       -2.13904       -0.86349
H          1.29688        1.29107       -2.11910
H          2.28162        2.44374       -1.18849
H          2.97056        1.63237       -2.62155
H          2.28258       -2.10708        1.62372
H          2.97440       -2.25362       -0.01003
H          3.75418       -1.20173        1.19565
H          3.09058        1.04402        1.82476
H          1.60481        1.94433        1.45137
H          1.54124        0.54529        2.54989
H          0.41324       -2.29547       -0.51211
H         -0.04143       -0.76033       -1.89361
H         -0.76535        3.07367        2.37509
H         -0.73920        1.28488        2.31694
H         -2.28111        2.16604        2.34509
H         -1.09312        2.16737       -2.35473
H         -2.73004        2.55039       -1.77708
H         -2.41141        1.03109       -2.66326
H         -3.82675        1.63177        0.40479
H         -3.92946        0.07447       -0.45412
H         -3.32334        0.11662        1.21065
H         -0.62933       -3.56887       -1.67587
H         -0.91742       -3.69990        0.11630
H         -2.74961       -2.13722       -0.04918
H         -2.47309       -1.97481       -1.84277
