36
2206.log
C          2.76856       -1.20911        1.50484
P          1.76474       -0.31341        0.28109
C          3.11039        0.48372       -0.77923
O          4.24902        0.19334       -0.54194
O          2.74179        1.29940       -1.72753
C          1.27344        1.20698        1.20574
O          0.91633        2.21265        0.63513
O          1.29244        1.04185        2.50371
Rh        -0.13218       -1.28103       -0.57360
Cl        -0.75084       -1.47518        1.74920
C         -2.99873        0.68431       -1.44300
P         -1.41591        0.58207       -0.51975
C         -0.71499        2.18720       -1.15116
O          0.14512        2.22892       -1.99201
O         -1.37249        3.22334       -0.68009
C         -2.00185        1.02759        1.19817
O         -1.41754        1.67637        2.01787
O         -3.20021        0.49063        1.36991
C         -0.65455       -3.42614       -0.89512
C         -1.74085       -2.52525       -1.13248
H          3.53286       -0.54934        1.91515
H          2.10565       -1.56908        2.29190
H          3.24631       -2.05317        1.00685
H          1.77526        1.47990       -1.80262
H          0.81008        1.75748        2.95868
H          0.61910       -2.62151       -0.56244
H          0.25306       -1.07829       -2.02591
H         -3.49244        1.63710       -1.25156
H         -3.64357       -0.13540       -1.13203
H         -2.77318        0.58346       -2.50447
H         -0.98259        4.06540       -0.97626
H         -3.49686        0.56822        2.29321
H         -0.24244       -3.95732       -1.74788
H         -0.69226       -4.01951        0.01449
H         -2.53681       -2.50920       -0.39206
H         -2.08659       -2.41174       -2.15642
