46
221.log
C         -2.14453        3.59918       -0.36194
N         -1.73733        2.21059       -0.41869
C         -2.77194        1.22149       -0.19132
C         -3.55491        0.73947       -1.40158
P         -1.62678       -0.01139        0.58159
C         -1.31043        0.81842        2.18708
Br        -3.06743       -1.51292        1.35623
Rh         0.04237       -1.02238       -0.62326
Cl        -0.23319        0.37170       -2.56053
C          4.80128       -1.83390        1.16597
N          3.48358       -1.42847        0.71484
C          3.02069       -0.14773        1.21398
C          2.40137       -0.17421        2.60467
P          1.82813        0.31454       -0.14217
C          3.02454        0.62719       -1.49133
Br         1.47347        2.41262        0.42196
C         -0.03136       -2.80347       -1.98930
C          1.27822       -2.26903       -1.82892
H         -2.59862        3.79875        0.60967
H         -2.86207        3.87010       -1.14612
H         -1.25641        4.22080       -0.46103
H         -1.27616        2.01580       -1.30790
H         -3.45562        1.58608        0.58892
H         -4.22463       -0.07385       -1.12249
H         -2.87223        0.38858       -2.17442
H         -4.15144        1.55282       -1.81135
H         -0.72569        0.15065        2.82079
H         -0.75935        1.74070        2.01699
H         -2.25663        1.04133        2.68251
H         -1.05738       -1.96130       -1.12803
H          0.27692       -1.91577        0.58421
H          5.52967       -1.09316        0.83447
H          4.88185       -1.93699        2.25552
H          5.04863       -2.79046        0.70824
H          2.80060       -2.14081        0.96217
H          3.85908        0.56107        1.18600
H          1.54453       -0.84961        2.61463
H          2.07329        0.82183        2.89778
H          3.12633       -0.52412        3.33790
H          2.47620        0.95898       -2.37413
H          3.74400        1.39332       -1.19863
H          3.54269       -0.30492       -1.71042
H         -0.25610       -3.76506       -1.53770
H         -0.53167       -2.63689       -2.93909
H          1.69823       -1.73715       -2.67747
H          2.00680       -2.85844       -1.28016
