46
2218.log
C         -3.45134        2.21853        1.73952
O         -2.69921        1.18304        1.11353
C         -2.28535        1.34808       -0.12156
O         -2.41922        2.32429       -0.81327
P         -1.41990       -0.20697       -0.61370
C         -1.12786        0.10796       -2.39199
C         -2.92248       -1.32754       -0.68474
C         -2.74623       -2.49503       -1.59845
O         -3.89013       -1.10944       -0.00625
Rh         0.21821       -1.00504        0.77870
Cl         0.73383       -2.47174       -1.05623
C          0.09343        4.12530        0.09849
O          0.70993        2.89642        0.49156
C          1.15087        2.11267       -0.47419
O          1.09293        2.35008       -1.65218
P          1.81612        0.56522        0.30373
C          2.76202        1.27357        1.69742
C          3.23764        0.20117       -0.87660
C          2.84256       -0.15522       -2.25485
O          4.35052        0.24313       -0.42287
C          0.32521       -2.80112        2.09710
C          1.55296       -2.06811        2.01996
H         -4.37176        1.77415        2.11600
H         -2.86390        2.61818        2.56691
H         -3.67536        3.00706        1.01935
H         -0.65881       -0.76864       -2.83536
H         -0.45948        0.96255       -2.49194
H         -2.07403        0.33810       -2.88271
H         -2.93332       -2.17490       -2.62297
H         -3.44787       -3.28734       -1.34604
H         -1.71575       -2.85339       -1.54491
H         -0.75453       -2.08047        1.28642
H         -0.19922       -0.11773        1.93116
H         -0.11747        4.66566        1.01743
H          0.77148        4.69488       -0.53889
H         -0.82660        3.91934       -0.45208
H          2.06971        1.61550        2.46415
H          3.40085        0.48755        2.09959
H          3.38764        2.09588        1.35105
H          2.20277        0.62932       -2.65931
H          2.24225       -1.07068       -2.20414
H          3.71335       -0.31206       -2.88671
H         -0.20461       -2.79809        3.04545
H          0.28313       -3.75583        1.57904
H          2.36710       -2.51514        1.45426
H          1.87947       -1.54318        2.91367
