42
2221.log
C         -1.64210        2.05037       -1.04684
C         -2.48817        0.80562       -0.92822
N         -3.82120        1.09629       -0.47738
O         -4.04906        2.15883        0.05221
O         -4.64801        0.19267       -0.57486
P         -1.86051       -0.45838        0.36470
C         -2.46128        0.34372        1.91986
O         -2.90745       -1.63435        0.15929
Rh         0.24682       -1.31095        0.19541
Cl         0.50718       -0.33176       -1.95823
C          2.81544        2.89281        0.56346
C          1.97107        1.80456       -0.08510
N          2.79127        1.14905       -1.09402
O          3.32368        0.12276       -0.71965
O          2.99210        1.70232       -2.13959
P          1.43224        0.43823        1.05900
C          2.86096        0.14634        2.17939
O          0.55579        1.44627        1.99548
C          0.97518       -3.27147       -0.63815
C          2.00669       -2.49045       -0.06449
H         -0.75444        1.80404       -1.62365
H         -2.19589        2.83065       -1.56659
H         -1.35515        2.42973       -0.06786
H         -2.53213        0.23947       -1.86425
H         -2.13045        1.37592        1.99625
H         -3.54907        0.30829        1.97347
H         -2.06381       -0.23155        2.75448
H         -3.82424       -1.32961       -0.01301
H         -0.47181       -2.50493       -0.41568
H          0.07958       -1.91017        1.58438
H          3.01606        3.67907       -0.16251
H          3.76533        2.49529        0.91486
H          2.27289        3.31989        1.40336
H          1.09458        2.25230       -0.55986
H          2.53363       -0.57773        2.92492
H          3.69946       -0.26973        1.63229
H          3.13949        1.07198        2.67868
H          0.08569        0.96772        2.68121
H          0.66456       -4.17944       -0.13107
H          0.91608       -3.32285       -1.72100
H          2.70739       -2.00137       -0.73154
H          2.44350       -2.82638        0.87153
