44
2222.log
C          4.01547       -1.20988        0.67133
C          3.40984        0.14688        0.99290
P          1.77066        0.44296        0.17473
C          1.44831        2.16347        0.78214
C          0.81559        2.88599       -0.36432
O          0.01386        2.35337       -1.09235
N          2.58452        1.01073       -1.36577
O          2.73982        2.19562       -1.58882
O          2.98470        0.10402       -2.05957
Rh         0.24920       -1.20920       -0.13791
Cl         0.66195       -0.70746        2.21006
C         -4.33146        0.16094        1.00194
C         -3.09388       -0.72237        0.95901
P         -1.67795       -0.00352        0.00053
C         -2.48341        0.72828       -1.49484
C         -2.92921       -0.41461       -2.32976
O         -2.84245       -1.55408       -1.96114
N         -2.15746        2.51289        0.67400
O         -1.81635        3.40336        1.38209
O         -1.46050        1.32945        0.93863
C          0.57067       -3.42233       -0.01461
C         -0.79793       -3.03943        0.08446
H          5.01600       -1.27971        1.09333
H          4.08324       -1.35772       -0.40601
H          3.40888       -2.00408        1.10213
H          4.08370        0.95073        0.67506
H          3.23479        0.24012        2.06751
H          2.36295        2.64825        1.12937
H          0.73665        2.10508        1.60905
H          1.06741        3.95225       -0.47455
H          1.44328       -2.15146       -0.27699
H          0.14823       -1.26035       -1.63850
H         -4.86608        0.13328        0.05515
H         -5.00650       -0.19235        1.77895
H         -4.07592        1.19726        1.22921
H         -3.32597       -1.69648        0.53316
H         -2.69519       -0.87092        1.96754
H         -3.31071        1.39078       -1.23477
H         -1.74071        1.32445       -2.03080
H         -3.34485       -0.16012       -3.32170
H          0.88804       -3.95084       -0.90754
H          1.06738       -3.75763        0.89252
H         -1.26011       -3.11007        1.06624
H         -1.45855       -3.28210       -0.74021
