48
2225.log
C         -4.54683       -0.51753        1.86319
C         -4.32038       -0.44425        0.36456
O         -2.97239       -0.84324        0.08381
C         -2.38176       -0.36833       -1.00172
O         -2.87185        0.38233       -1.80190
P         -0.67032       -1.07593       -1.03530
C         -0.18959       -0.63616       -2.74279
C         -1.14179       -2.83466       -1.25995
Rh         0.74184       -0.65111        0.70791
Cl         2.07933       -2.23135       -0.51717
C         -2.41553        2.76955        0.62262
C         -1.12562        3.57554        0.61871
O         -0.04400        2.78201        0.15610
C          0.24603        2.84767       -1.13681
O          1.23678        2.04668       -1.39203
P          1.92531        1.04771       -0.24174
C          2.77177        2.26427        0.84929
C          3.32386        0.59037       -1.31986
C          1.14211       -1.82663        2.54788
C          2.05654       -0.73902        2.34681
H         -3.86023        0.14759        2.37975
H         -5.56682       -0.22400        2.09351
H         -4.37906       -1.53099        2.21740
H         -4.99473       -1.12426       -0.16825
H         -4.47235        0.56992       -0.01816
H          0.00328        0.43303       -2.81515
H          0.71569       -1.18924       -2.99101
H         -0.99552       -0.90419       -3.42619
H         -1.66445       -3.19227       -0.37385
H         -0.22090       -3.40268       -1.38920
H         -1.77628       -2.94666       -2.13933
H          0.07247       -1.81259        1.45687
H         -0.16614        0.30419        1.44789
H         -2.27676        1.86577        1.21192
H         -3.22250        3.35909        1.04876
H         -2.67110        2.48889       -0.39654
H         -1.22438        4.45476       -0.02620
H         -0.85985        3.88608        1.63363
H          3.10891        3.11288        0.25467
H          3.62849        1.77002        1.30272
H          2.10168        2.60556        1.63369
H          2.95723        0.00682       -2.16146
H          3.82168        1.49010       -1.67986
H          4.01486       -0.02933       -0.75351
H          0.46453       -1.76477        3.39510
H          1.52173       -2.82917        2.37011
H          3.06987       -1.00226        2.05222
H          2.01300        0.08699        3.05241
