46
223.log
C          2.47298        1.38702        1.88349
C          2.52769        1.58740        0.36455
N          1.77558        2.69699       -0.18211
P          1.93613        0.07069       -0.53659
C          3.24399       -1.10681       -0.01479
C          2.51028        0.51019       -2.22055
Rh        -0.14533       -0.92395       -0.42689
Cl         0.31899       -1.60200        1.82913
C         -3.27856        1.34734       -1.54434
C         -2.33483        1.91461       -0.48782
N         -1.19572        2.63162       -1.03277
P         -1.56150        0.58788        0.56840
C         -3.05269       -0.12861        1.36910
C         -1.01565        1.60720        1.98955
C         -0.56500       -3.05939       -0.94587
C         -1.71877       -2.35700       -0.49724
H          3.37672        0.89284        2.23237
H          1.62460        0.76431        2.15812
H          2.39067        2.34608        2.39538
H          3.57555        1.73863        0.05886
H          1.99302        3.56126        0.30332
H          0.77178        2.53608       -0.11797
H          3.27641       -1.93810       -0.71918
H          4.21574       -0.61488        0.01615
H          2.98943       -1.49375        0.97094
H          3.58054        0.71022       -2.21288
H          1.97894        1.40232       -2.54316
H          2.28943       -0.30853       -2.90307
H          0.68156       -2.06449       -1.01832
H         -0.47218       -0.46086       -1.83373
H         -3.58771        2.13130       -2.23630
H         -2.76926        0.56610       -2.10855
H         -4.16886        0.92603       -1.08406
H         -2.88133        2.60188        0.17199
H         -1.48995        3.44149       -1.57038
H         -0.69510        2.00808       -1.66404
H         -3.66221        0.67077        1.79075
H         -2.71592       -0.78756        2.16847
H         -3.64185       -0.70349        0.65923
H         -1.87158        2.14020        2.40289
H         -0.60650        0.93524        2.74253
H         -0.25665        2.32183        1.68654
H         -0.51908       -3.36129       -1.98840
H         -0.11597       -3.77384       -0.26191
H         -2.08525       -2.60814        0.49272
H         -2.50319       -2.15860       -1.22302
