42
2232.log
C          2.46053       -0.19887        3.66038
C          2.66249        0.94271        2.65678
C          2.84023        0.34889        1.29024
O          3.86510        0.22071        0.69185
O          1.64370       -0.07269        0.79429
P          1.38807       -1.02025       -0.52126
C          2.69636       -2.29938       -0.41164
Br         2.24749        0.25449       -2.10096
Rh        -0.80661       -1.61442       -0.50065
Cl        -0.11841       -2.39709        1.65927
C          0.70476        5.02687       -0.62882
C          0.61079        3.53409       -0.91117
C         -0.32305        2.84664        0.03418
O         -0.94773        3.33508        0.92553
O         -0.38893        1.50603       -0.24918
P         -1.38186        0.37372        0.40237
C         -1.37405        0.65912        2.21172
Br        -3.34851        1.24026       -0.06244
C         -1.90560       -3.52805       -0.85860
C         -2.70783       -2.47418       -0.30668
H          2.24901        0.20755        4.64571
H          3.35885       -0.80858        3.72177
H          1.63261       -0.83883        3.36014
H          3.55370        1.51845        2.90730
H          1.79114        1.60033        2.65458
H          2.63809       -2.91612       -1.30822
H          3.68826       -1.85584       -0.33437
H          2.48702       -2.91472        0.46312
H         -0.51711       -3.01147       -1.09457
H         -1.13838       -1.10526       -1.89204
H          1.07724        5.20289        0.37701
H          1.37861        5.49512       -1.33990
H         -0.27499        5.48944       -0.71257
H          0.25303        3.34595       -1.92675
H          1.59059        3.05438       -0.83912
H         -1.62177        1.69127        2.45486
H         -2.11010       -0.01577        2.64814
H         -0.39435        0.39245        2.60200
H         -2.11640       -3.83839       -1.87757
H         -1.64920       -4.35235       -0.19828
H         -3.00936       -2.57955        0.73405
H         -3.47841       -2.03964       -0.93932
