46
2243.log
C         -3.34466       -1.45840        0.01657
N         -2.32744       -0.47313        0.35556
C         -2.62111        0.26951        1.52601
F         -3.77247        1.04247        1.37428
P         -1.45346        0.39060       -0.83545
C         -2.60975        1.73636       -1.35097
C         -1.61571       -0.67720       -2.31154
Rh         0.69480        1.09672       -0.41635
Cl         0.49574        1.34955        1.96701
C          0.22858       -2.11346        1.83147
N          1.01812       -2.32430        0.62240
C          0.60282       -3.43547       -0.12773
F         -0.67337       -3.30077       -0.68567
P          1.74161       -0.90580       -0.02816
C          2.68316       -1.61320       -1.43346
C          3.09905       -0.79042        1.20460
C          1.56816        3.15438       -0.43144
C          2.54239        2.12548       -0.25256
H         -2.93615       -2.18516       -0.67915
H         -3.62393       -1.98243        0.93231
H         -4.24958       -1.00809       -0.40295
H         -2.82816       -0.39240        2.37629
H         -1.80737        0.96085        1.76595
H         -2.20400        2.23414       -2.22965
H         -3.59101        1.32088       -1.58011
H         -2.71171        2.46189       -0.54530
H         -1.10838       -0.15802       -3.12275
H         -1.12624       -1.63171       -2.15015
H         -2.66028       -0.82820       -2.57634
H          0.14271        2.51448       -0.58666
H          0.91461        0.96996       -1.90949
H         -0.84101       -2.15390        1.61883
H          0.45475       -1.13132        2.24267
H          0.48211       -2.88158        2.56602
H          0.52471       -4.32009        0.51970
H          1.26604       -3.63437       -0.97183
H          3.36562       -0.83485       -1.77085
H          3.25372       -2.48791       -1.12497
H          2.01921       -1.85679       -2.26005
H          2.74106       -0.28591        2.09942
H          3.91825       -0.21399        0.78068
H          3.43909       -1.79367        1.45686
H          1.56869        3.70241       -1.36928
H          1.32977        3.76815        0.43230
H          2.98652        2.04760        0.73460
H          3.24560        1.95444       -1.06430
