48
225.log
C          1.51830       -1.75192        2.77130
O          2.10003       -0.85376        1.83053
P          1.91349       -1.02256        0.23180
C          2.78685       -2.61845       -0.08328
C          3.26468        0.14995       -0.22360
C          3.05522        1.51759        0.42805
C          3.90334        2.53347       -0.27564
O          3.48721        3.45654       -0.91703
Rh        -0.08558       -0.85577       -0.89225
Cl        -1.31570       -1.83533        0.93968
C         -0.32825        1.27016        2.34653
O         -0.24105        1.94306        1.09532
P         -0.69754        1.28469       -0.31169
C         -0.11435        2.65643       -1.36656
C         -2.51621        1.68124       -0.33283
C         -3.31147        0.92051        0.72565
C         -4.76329        0.81316        0.38957
O         -5.67224        0.92440        1.16355
C         -1.12713       -2.31273       -2.23342
C         -1.80945       -1.06650       -2.10555
H          0.49311       -2.00938        2.50135
H          1.52243       -1.24036        3.73343
H          2.11384       -2.66408        2.84329
H          2.99562       -2.70393       -1.14688
H          2.14322       -3.44589        0.21430
H          3.71523       -2.65584        0.48579
H          4.22527       -0.27613        0.07352
H          3.23974        0.23965       -1.31179
H          2.00589        1.80757        0.36123
H          3.34355        1.46286        1.47879
H          4.99267        2.34382       -0.19060
H          0.19989       -2.27618       -1.38345
H          0.67812       -0.29092       -2.06986
H         -1.04420        1.79719        2.97917
H          0.65625        1.30035        2.81568
H         -0.64465        0.23319        2.22986
H          0.96515        2.62602       -1.48916
H         -0.39570        3.60239       -0.90884
H         -0.57883        2.55955       -2.34489
H         -2.61138        2.75960       -0.17473
H         -2.89159        1.44591       -1.33114
H         -2.93662       -0.11187        0.79804
H         -3.19953        1.37321        1.71177
H         -4.95470        0.59438       -0.68331
H         -0.66102       -2.54582       -3.18589
H         -1.56515       -3.17535       -1.73934
H         -2.73341       -1.07377       -1.53499
H         -1.83532       -0.41691       -2.97658
