44
2253.log
C         -2.98154        1.44418       -2.10628
O         -3.05709        0.62441       -0.95288
P         -1.76999       -0.13845       -0.37530
F         -1.73527       -1.35989       -1.46694
C         -2.63452       -1.02128        0.99841
C         -1.71090       -2.08927        1.56767
C         -3.95205       -1.61872        0.52136
Rh         0.13680        1.09660       -0.12459
Cl        -0.34841        1.02819        2.19755
C          1.24422       -3.31242       -0.59992
O          0.74219       -1.97928       -0.61100
P          1.46300       -0.72756        0.06518
F          1.74119       -1.37002        1.53880
C          3.23135       -0.88082       -0.49104
C          4.15565       -0.01611        0.35388
C          3.30398       -0.53367       -1.96928
C          0.45954        3.29113        0.14766
C          1.65571        2.51681        0.25507
H         -2.96799        0.82805       -3.00735
H         -3.86989        2.07578       -2.10450
H         -2.08160        2.06795       -2.09104
H         -2.81769       -0.25887        1.76076
H         -1.47008       -2.82610        0.80380
H         -0.78893       -1.63892        1.92968
H         -2.19244       -2.59542        2.40268
H         -3.77809       -2.31930       -0.29275
H         -4.42653       -2.15375        1.34218
H         -4.62942       -0.84329        0.17549
H         -0.71933        2.36095       -0.20676
H          0.40369        1.14983       -1.62537
H          1.67562       -3.56595        0.36980
H          0.38846       -3.95805       -0.79540
H          1.98585       -3.45663       -1.38735
H          3.50074       -1.93309       -0.33559
H          5.19582       -0.24260        0.12398
H          3.98812       -0.20099        1.41294
H          3.98302        1.03770        0.15637
H          2.62261       -1.15701       -2.54620
H          3.01542        0.50454       -2.12214
H          4.31467       -0.67327       -2.34956
H          0.36243        3.95946       -0.70356
H          0.04105        3.68873        1.06761
H          2.07530        2.39551        1.24954
H          2.39826        2.64770       -0.52814
