48
2255.log
C          0.08581       -3.58891       -0.04925
P         -0.19410       -1.88586        0.56917
C         -0.80742       -2.25534        2.25444
C          1.55337       -1.32992        0.92444
O          1.79197       -0.70554        1.92996
C          2.57256       -1.65587       -0.12800
C          3.92175       -0.96481        0.10435
C          4.93603       -1.57571       -0.71594
N          5.71506       -2.09570       -1.37037
Rh        -1.33647       -0.51289       -0.82418
Cl        -3.25807       -1.17796        0.41537
C         -2.85141        2.34077        0.84299
P         -1.33422        1.35137        0.59741
C         -0.85749        1.16483        2.36550
C         -0.14708        2.72763        0.17596
O         -0.53698        3.84577       -0.03764
C          1.28988        2.29423        0.10331
C          2.25977        3.45923       -0.11634
C          3.59314        2.93662       -0.24328
N          4.62441        2.45120       -0.33484
C         -2.53162       -0.26482       -2.71830
C         -2.60342        0.91445       -2.00926
H          0.67998       -4.16061        0.66508
H          0.56808       -3.57208       -1.02464
H         -0.89575       -4.05177       -0.15747
H         -1.34074       -3.20403        2.20759
H         -1.51100       -1.49509        2.58087
H          0.02894       -2.32105        2.94992
H          2.71402       -2.74152       -0.11268
H          2.14840       -1.40119       -1.10376
H          4.21114       -1.06593        1.15475
H          3.87547        0.10192       -0.13022
H         -1.34575       -1.76559       -1.65614
H         -0.08641       -0.10201       -1.58374
H         -3.67967        1.65462        1.02220
H         -2.71919        2.99644        1.70330
H         -3.05323        2.94802       -0.03766
H         -0.68232        2.14945        2.80149
H          0.02683        0.54178        2.48619
H         -1.70199        0.69875        2.87360
H          1.35378        1.58170       -0.72664
H          1.53900        1.74419        1.01543
H          2.21952        4.15445        0.72636
H          1.99281        4.00737       -1.02383
H         -1.88665       -0.34841       -3.58608
H         -3.36771       -0.95571       -2.68783
H         -3.50802        1.12482       -1.45094
H         -2.02602        1.77944       -2.32285
