50
2257.log
C          3.85844        3.69507       -1.21396
C          3.27045        3.55206        0.16321
O          3.43821        4.36255        1.03680
C          2.42717        2.30863        0.39173
C          3.13052        1.01268        0.00390
P          1.95819       -0.40998        0.26290
C          2.19630       -0.74403        2.03654
N          3.08811       -1.61633       -0.47906
O          3.01511       -1.70441       -1.68270
O          3.90356       -2.15684        0.22407
Rh        -0.03129       -0.53322       -0.83209
Cl         0.47427       -2.71149        0.09242
C         -5.30306        1.33027       -1.77723
C         -4.79304        1.92616       -0.49474
O         -5.48132        2.54607        0.27159
C         -3.32011        1.66519       -0.21257
C         -3.19665        0.37164        0.59375
P         -1.42032       -0.02329        0.89089
C         -0.97235        1.22395        2.15226
N         -1.69644       -1.41823        2.00354
O         -0.93981       -1.52344        2.93883
O         -2.60260       -2.15987        1.71817
C         -0.47329       -1.48623       -2.81381
C         -1.63773       -1.26343       -2.03072
H          4.12561        4.73325       -1.39253
H          3.16622        3.34841       -1.97598
H          4.76736        3.09802       -1.27304
H          1.51538        2.40228       -0.20944
H          2.13925        2.28852        1.44567
H          3.39600        1.02760       -1.05665
H          4.03545        0.85985        0.60034
H          1.35407       -1.30629        2.43815
H          2.30614        0.19534        2.57569
H          3.10676       -1.33838        2.14192
H          0.79040       -0.84496       -2.07383
H         -0.16358        0.88416       -1.36556
H         -4.86766        1.87278       -2.61498
H         -6.38531        1.40993       -1.82777
H         -5.00443        0.28789       -1.85857
H         -2.92662        2.49830        0.37290
H         -2.75336        1.57933       -1.14084
H         -3.64255       -0.46765        0.05343
H         -3.71144        0.47359        1.55469
H         -0.11174        0.87039        2.71798
H         -0.70572        2.14919        1.64490
H         -1.80619        1.40096        2.83207
H         -0.34765       -0.90804       -3.72382
H         -0.08264       -2.49747       -2.87504
H         -2.09449       -2.12596       -1.55093
H         -2.34844       -0.52396       -2.38841
