40
226.log
C         -2.94101        0.81832       -1.79263
N         -2.41683        1.36135       -0.53998
P         -1.76585        0.28553        0.60108
C         -1.78684        1.42972        2.03972
C         -3.27252       -0.68346        0.99428
Rh         0.13860       -0.94523        0.29131
Cl         0.13542       -0.58653       -2.08810
C          1.03142        2.61647       -1.52937
N          1.23357        2.36306       -0.10393
P          1.61970        0.78822        0.41495
C          2.24967        1.24336        2.07516
C          3.19107        0.57206       -0.49425
C          0.45563       -3.11998       -0.11618
C          1.67104       -2.37324        0.01433
H         -3.35394        1.64197       -2.37539
H         -3.74205        0.11833       -1.56523
H         -2.18045        0.30680       -2.38737
H         -1.71511        2.06553       -0.76131
H         -2.75468        1.92513        2.08875
H         -1.61722        0.84427        2.94071
H         -0.99923        2.17685        1.96320
H         -3.10064       -1.20266        1.93577
H         -3.45871       -1.42657        0.22084
H         -4.12688       -0.01383        1.08301
H         -0.75244       -2.18764        0.10985
H          0.18946       -1.16932        1.78998
H          1.98786        2.51428       -2.03804
H          0.68030        3.64086       -1.65636
H          0.32619        1.92773       -2.00167
H          0.42163        2.68492        0.41901
H          2.94304        2.07730        1.98884
H          1.42255        1.51628        2.72666
H          2.75061        0.37786        2.50271
H          3.76986       -0.21604       -0.01619
H          3.74344        1.51067       -0.47370
H          2.97657        0.28186       -1.52121
H          0.21742       -3.84119        0.66061
H          0.18457       -3.45484       -1.11393
H          2.24285       -2.21326       -0.89532
H          2.29014       -2.57586        0.88496
