40
2262.log
C         -1.80384       -1.68561       -1.71606
P         -1.71290       -0.41715       -0.39821
O         -1.57773       -1.36078        0.89933
C         -3.45287        0.20494       -0.29795
C         -4.53068       -0.87118       -0.13704
O         -4.53007       -1.47422        1.12710
Rh        -0.09249        1.15769       -0.38109
Cl        -0.21476        0.89652        2.05205
C          2.59124       -0.75562       -1.83940
P          1.54963       -0.50302       -0.36087
O          1.01312       -2.02061       -0.23695
C          2.81223       -0.48836        1.00762
C          3.68842       -1.73898        1.06455
O          4.75598       -1.71595        0.14830
C          0.60874        3.26745       -0.24024
C          1.71138        2.43874       -0.17655
H         -0.80227       -2.00580       -1.99237
H         -2.37093       -2.54322       -1.35922
H         -2.28743       -1.24720       -2.58533
H         -1.20214       -0.76012        1.61084
H         -3.49173        0.88423        0.55934
H         -3.63278        0.79085       -1.20087
H         -5.51653       -0.40613       -0.23756
H         -4.43484       -1.62776       -0.93026
H         -3.63975       -1.80063        1.30916
H         -1.26983        2.09976       -0.42097
H         -0.07599        1.25238       -1.88610
H          1.94277       -0.89984       -2.70090
H          3.21524       -1.63353       -1.69023
H          3.21461        0.11843       -2.00802
H          0.23874       -2.09737        0.33562
H          3.44249        0.39620        0.89812
H          2.24946       -0.38780        1.94010
H          4.07107       -1.86379        2.08825
H          3.10414       -2.62594        0.80876
H          5.32480       -0.96436        0.34925
H          0.38370        3.81001       -1.15137
H          0.21804        3.71063        0.66987
H          2.17509        2.26480        0.78804
H          2.36796        2.34610       -1.03526
