46
2264.log
C         -0.04043       -4.59669        0.10157
C         -0.77175       -3.43414       -0.55814
P         -0.63129       -1.82762        0.34007
C         -1.03385       -2.25042        2.07053
C          1.20119       -1.69583        0.46397
O          1.82821       -1.47136        1.45575
O          1.72154       -1.78972       -0.80250
C          2.99745       -1.44292       -1.10125
O          3.83169       -1.07730       -0.34095
Rh        -1.49376        0.04499       -0.62969
Cl        -2.85221        0.45647        1.29896
C         -1.22894        3.86386        0.88684
C         -0.09884        3.28118        0.04238
P          0.03882        1.45384        0.31008
C          0.32373        1.38235        2.11293
C          1.75822        1.29008       -0.37176
O          2.00012        1.07203       -1.51968
O          2.68740        1.40192        0.61582
C          4.03167        1.44910        0.36174
O          4.54144        1.78584       -0.64947
C         -3.29669        0.36627       -1.91288
C         -2.53352        1.55319       -1.68177
H         -0.11074       -5.48075       -0.52938
H         -0.47484       -4.83804        1.06854
H          1.01350       -4.36517        0.24499
H         -1.84238       -3.65014       -0.63930
H         -0.39123       -3.25501       -1.56776
H         -1.17480       -1.32670        2.63048
H         -1.97942       -2.79237        2.07702
H         -0.23951       -2.84446        2.52032
H          3.12794       -1.56744       -2.18636
H         -2.60342       -0.83287       -1.22537
H         -0.62364       -0.18354       -1.84860
H         -0.91739        3.98411        1.92127
H         -2.09679        3.20681        0.87605
H         -1.52495        4.83832        0.50440
H          0.85757        3.75009        0.29682
H         -0.28499        3.43617       -1.02379
H          0.79437        0.43627        2.37865
H          0.95793        2.20909        2.43008
H         -0.65225        1.44643        2.59391
H          4.54766        1.17690        1.29421
H         -3.30176       -0.04765       -2.91725
H         -4.25160        0.28297       -1.40076
H         -2.97704        2.29871       -1.02896
H         -1.99109        1.97316       -2.52470
