40
2268.log
C         -2.57746       -0.64638       -2.85355
C         -2.09468       -1.45196       -1.65392
P         -1.61856       -0.33529       -0.26704
C         -1.37535       -1.56712        0.98625
N         -1.20425       -2.34848        1.80551
C         -3.25263        0.30297        0.34312
C         -4.19866       -0.76694        0.46353
N         -4.94411       -1.63102        0.52937
Rh         0.04848        1.20487       -0.36711
Cl        -0.51827        1.34412        1.95747
C          1.74261       -1.24809        2.63384
C          2.60950       -0.52265        1.61252
P          1.75752       -0.23627        0.00419
C          1.36024       -1.90222       -0.46611
N          1.01568       -2.92868       -0.84196
C          3.22211       -0.01977       -1.12773
C          4.12566       -1.12778       -1.01444
N          4.83960       -2.01341       -0.90430
C          0.01681        3.44459       -0.44592
C          1.31993        2.89032       -0.23107
H         -2.70578       -1.29659       -3.71537
H         -3.53380       -0.16931       -2.64566
H         -1.84952        0.12464       -3.10867
H         -1.20238       -2.03064       -1.91369
H         -2.86463       -2.14629       -1.30298
H         -3.62249        1.06098       -0.35662
H         -3.07065        0.76880        1.31900
H         -0.97956        2.31795       -0.64575
H          0.29335        1.07781       -1.86410
H          1.43620       -2.22500        2.26394
H          0.84747       -0.67495        2.86385
H          2.30400       -1.38689        3.55510
H          3.52137       -1.09530        1.40638
H          2.89157        0.46680        1.99200
H          3.73144        0.91087       -0.85527
H          2.85292        0.06048       -2.15498
H         -0.16554        3.95064       -1.38962
H         -0.46483        3.91889        0.40475
H          1.74171        3.00310        0.76493
H          2.04684        3.00954       -1.03100
