36
2270.log
C         -2.78837        1.95696        2.09816
C         -3.15311        1.10380        0.89312
P         -1.74645        0.09897        0.23022
Br        -2.93031       -1.07164       -1.20749
C         -1.63132       -1.18925        1.57450
F         -1.14739       -2.34165        1.02228
Rh         0.11258        1.20425       -0.50760
Cl         0.52725        1.60544        1.82361
C          0.62191       -2.48497       -1.90054
C          1.90958       -1.70756       -1.67097
P          1.70804       -0.43003       -0.35714
Br         1.83863       -1.68537        1.43433
C          3.48223        0.12438       -0.22930
F          3.84373        0.74328       -1.39330
C          0.38341        3.39504       -0.95501
C          1.58414        2.64295       -1.04667
H         -1.97677        2.64135        1.86147
H         -2.46915        1.33752        2.93385
H         -3.65131        2.54224        2.40998
H         -3.96837        0.41521        1.14533
H         -3.49589        1.74089        0.06900
H         -2.62066       -1.41501        1.99258
H         -0.93708       -0.86955        2.35872
H         -0.81812        2.41108       -0.63652
H         -0.14670        0.89177       -1.97158
H          0.31048       -3.00217       -0.99353
H         -0.17785       -1.81357       -2.21187
H          0.76209       -3.22651       -2.68337
H          2.72733       -2.38157       -1.39427
H          2.19435       -1.16429       -2.57761
H          3.61026        0.83679        0.59470
H          4.15245       -0.73385       -0.08932
H         -0.04852        3.78824       -1.86981
H          0.25602        4.03984       -0.09029
H          2.31339        2.78384       -0.25419
H          2.02150        2.49231       -2.02904
