36
2291.log
C          2.69081        0.41397       -2.31406
C          2.45385        0.95903       -0.92096
Br         4.15120        1.58251       -0.16141
P          1.61625       -0.29211        0.19018
C          1.85140        0.41626        1.86280
Br         3.16524       -1.83542        0.24707
Rh        -0.44939       -1.06931       -0.45237
Cl        -0.40102       -2.05642        1.72399
C         -3.10990        1.47512       -1.90442
C         -3.25545        1.25641       -0.41541
Br        -4.66450       -0.06029       -0.03874
P         -1.69339        0.62882        0.39508
C         -2.20972        0.62965        2.14792
Br        -0.69454        2.60835        0.35604
C         -1.07757       -3.07622       -1.28281
C         -2.17309       -2.24461       -0.94399
H          3.40904       -0.40636       -2.29607
H          3.07674        1.19417       -2.96789
H          1.75027        0.04628       -2.72803
H          1.80889        1.84268       -0.94819
H          1.36138       -0.25078        2.57479
H          1.40655        1.41015        1.92118
H          2.91388        0.48186        2.10253
H          0.29726       -2.25797       -1.04529
H         -0.42685       -0.41664       -1.82929
H         -2.76618        0.56571       -2.39835
H         -2.38121        2.26510       -2.09257
H         -4.06005        1.77351       -2.34518
H         -3.58178        2.17322        0.08913
H         -2.80177        1.51464        2.39078
H         -2.78457       -0.27624        2.34197
H         -1.31803        0.59386        2.77576
H         -0.88347       -3.27673       -2.33169
H         -0.83520       -3.89976       -0.61824
H         -2.73421       -2.49683       -0.04823
H         -2.78475       -1.85988       -1.75530
