48
2298.log
C         -3.90017        2.10084        0.31144
C         -2.96039        1.09695       -0.35428
C         -3.43197       -0.29671       -0.06848
O         -3.78220       -1.09696       -0.90288
C         -3.46144       -0.60661        1.35375
N         -3.49874       -0.83480        2.47560
P         -1.09759        1.21652        0.08333
C         -1.23485        1.90237        1.77589
C         -0.78726        2.70556       -0.94078
Rh        -0.19805       -0.82128       -0.59964
Cl         1.49448        0.36230       -1.84190
C          3.85042        0.19598        1.71607
C          2.91004       -0.13026        0.56110
C          2.28495        1.15656        0.02955
O          1.29393        1.58061        0.66230
C          3.18407        2.05153       -0.65902
N          3.91066        2.77107       -1.17529
P          1.38744       -1.10160        1.02462
C          1.03693       -0.70687        2.77438
C          2.11427       -2.77245        1.24443
C         -0.71459       -2.07316       -2.37056
C          0.32496       -2.62807       -1.56369
H         -3.55256        3.12128        0.16513
H         -4.00066        1.90910        1.37754
H         -4.88974        2.02132       -0.13908
H         -2.99903        1.22930       -1.44391
H         -1.86358        2.78951        1.75860
H         -1.65639        1.15505        2.44510
H         -0.24143        2.18049        2.10889
H         -1.54381        3.46132       -0.73499
H          0.19528        3.10550       -0.71075
H         -0.81942        2.42950       -1.99459
H         -1.17847       -0.68351       -1.77050
H         -1.17681       -1.57212        0.25949
H          4.72302        0.72759        1.33785
H          3.35489        0.83128        2.44706
H          4.19081       -0.71434        2.20642
H          3.45426       -0.67789       -0.21705
H          0.13364       -1.25017        3.05157
H          1.86352       -1.02171        3.40981
H          0.85625        0.35714        2.88744
H          2.91054       -2.74567        1.98764
H          2.51212       -3.14005        0.30102
H          1.33130       -3.44835        1.58325
H         -1.68913       -2.55014       -2.34719
H         -0.44426       -1.68595       -3.34931
H          1.32919       -2.62630       -1.98214
H          0.09185       -3.52456       -0.99694
