44
2302.log
C         -1.61326       -1.55953       -0.86072
P         -1.15349        0.20498       -1.02027
C         -1.82754        0.54196       -2.69342
C         -2.46947        1.06447       -0.02039
O         -3.75155        0.48523       -0.22814
C         -4.14089       -0.41432        0.65971
O         -3.52760       -0.78372        1.62187
O         -5.35206       -0.87046        0.32436
Rh         0.97793        0.89705       -0.57749
Cl         0.12961        2.67841        0.78279
C          2.46570        0.56042        2.59436
P          1.23218       -0.14252        1.43612
C         -0.20260       -0.24948        2.56576
C          1.82387       -1.91249        1.46248
O          1.13553       -2.63611        0.45094
C          1.85801       -3.03898       -0.58543
O          3.04737       -2.97391       -0.69961
O          1.04828       -3.58543       -1.50121
C          2.29370        2.36443       -1.63458
C          2.90130        1.76375       -0.48654
H         -2.63932       -1.72108       -1.18980
H         -1.48794       -1.89919        0.16476
H         -0.93507       -2.13433       -1.48932
H         -2.88006        0.26233       -2.73514
H         -1.26059       -0.03496       -3.42293
H         -1.72233        1.60200       -2.92188
H         -2.52528        2.10173       -0.35977
H         -2.20912        1.05316        1.04053
H         -5.66037       -1.50835        0.98415
H          0.89584        1.76330       -1.84369
H          1.52982       -0.25593       -1.39321
H          3.45833        0.52884        2.14935
H          2.46221        0.00139        3.52975
H          2.19087        1.59631        2.78605
H         -1.03397       -0.78616        2.11278
H          0.09291       -0.74430        3.49071
H         -0.51731        0.77017        2.78451
H          1.60317       -2.39286        2.42050
H          2.90115       -1.94636        1.26438
H          1.57531       -3.89367       -2.25300
H          2.69424        2.11100       -2.61219
H          1.98788        3.40327       -1.54461
H          3.02826        2.40139        0.38347
H          3.72831        1.07880       -0.65656
