46
2309.log
C          5.30651       -0.54413       -1.44776
C          4.30088        0.28093       -0.65720
C          3.86143       -0.44066        0.61005
O          2.98216        0.34781        1.39681
P          1.45778        0.64077        0.96941
C          0.96153        1.41004        2.53986
C          1.64145        2.12230       -0.03200
N          1.75899        3.00151       -0.75798
Rh         0.24290       -0.97264       -0.07492
Cl        -1.35886       -0.75842        1.69467
C         -5.54972        0.03771        0.77541
C         -4.42208        0.66168       -0.03528
C         -3.60821       -0.41080       -0.74731
O         -2.59526        0.17315       -1.57004
P         -1.10222        0.51953       -1.12016
C         -0.63107        1.36241       -2.66790
C         -1.30515        1.96454       -0.07549
N         -1.39470        2.85300        0.64268
C          0.18862       -3.20273        0.11958
C         -0.73284       -2.67792       -0.84444
H          6.19714       -0.73460       -0.85347
H          4.87268       -1.49876       -1.73573
H          5.60041       -0.01363       -2.34897
H          3.41136        0.47002       -1.26603
H          4.73241        1.24636       -0.38607
H          3.37306       -1.38890        0.34420
H          4.71862       -0.64905        1.25712
H          1.75748        2.08163        2.86088
H          0.02770        1.95295        2.40852
H          0.81461        0.61917        3.27507
H          1.01252       -2.05723        0.70802
H          1.22478       -1.03818       -1.23402
H         -6.12179        0.81162        1.27947
H         -5.14260       -0.63426        1.52676
H         -6.22138       -0.52617        0.13147
H         -3.75612        1.21534        0.62999
H         -4.82369        1.35955       -0.77323
H         -3.16797       -1.07787       -0.00204
H         -4.23874       -0.98836       -1.43059
H          0.31043        1.88872       -2.52785
H         -1.41584        2.06263       -2.94974
H         -0.51456        0.60915       -3.44493
H          1.02517       -3.79097       -0.24734
H         -0.22907       -3.57559        1.05112
H         -1.78666       -2.72872       -0.58851
H         -0.53638       -2.88676       -1.89310
