32
2310.log
C          0.81446       -1.82237        2.26630
P          0.93470       -1.44960        0.48797
F          1.33701       -2.93217       -0.00899
C          2.63879       -0.73439        0.36666
C          2.93703       -0.46391       -1.01170
N          3.16247       -0.26028       -2.11281
Rh        -0.76390       -0.52260       -0.64558
Cl        -2.12555       -0.84515        1.29834
C         -1.79220        2.45954        1.16117
P         -0.44931        1.49877        0.37899
F          0.47844        1.38607        1.71671
C          0.50703        2.90870       -0.40692
C          1.90343        2.68032       -0.19401
N          3.00417        2.47746        0.03841
C         -2.53636       -0.68062       -1.98009
C         -2.40523        0.64048       -1.59251
H          1.71440       -2.34726        2.58456
H         -0.06031       -2.45278        2.41960
H          0.68163       -0.90347        2.83047
H          3.34298       -1.47444        0.75825
H          2.70356        0.19230        0.94071
H         -0.92569       -1.93108       -1.14638
H          0.12662       -0.28161       -1.84570
H         -2.34188        3.02258        0.41008
H         -1.34902        3.13699        1.89066
H         -2.46139        1.76449        1.66612
H          0.22317        3.86217        0.04633
H          0.29432        2.92263       -1.47735
H         -2.24292       -0.98862       -2.97733
H         -3.27979       -1.30551       -1.49563
H         -3.07767        1.02479       -0.83302
H         -2.02615        1.37393       -2.29861
