48
2311.log
C         -3.62418        1.18405       -1.44377
O         -3.27567        0.30140       -0.38597
P         -1.78770       -0.12736        0.00128
C         -2.20662       -1.02047        1.57049
C         -3.18942       -2.16266        1.33494
C         -2.76838        0.01999        2.53474
N         -1.61780       -1.52498       -1.14861
O         -0.92482       -2.47530       -0.85108
O         -2.15624       -1.36442       -2.22384
Rh        -0.07133        1.33623       -0.31588
Cl         0.37018        1.34970        2.01633
C          1.47077       -1.48174       -2.52811
O          2.21007       -1.02976       -1.40538
P          1.58394       -0.22697       -0.16891
C          3.20264        0.14392        0.67108
C          3.81158       -1.09799        1.31247
C          4.15763        0.75865       -0.34559
N          1.03979       -2.73814        0.94024
O          1.80403       -3.27659        0.21201
O          0.91605       -1.38661        0.84583
C          0.03339        3.57242       -0.31117
C          1.29012        2.94078       -0.54998
H         -3.76083        0.61740       -2.36531
H         -4.55869        1.66615       -1.15745
H         -2.84698        1.93859       -1.59881
H         -1.26381       -1.40720        1.96639
H         -4.07804       -1.80736        0.81706
H         -2.73688       -2.96807        0.76121
H         -3.49516       -2.57078        2.29624
H         -2.05938        0.83501        2.67012
H         -3.70710        0.42207        2.15901
H         -2.94975       -0.43682        3.50513
H         -1.09441        2.47202       -0.19558
H         -0.24925        1.26867       -1.82750
H          0.70602       -0.75325       -2.81417
H          0.99942       -2.44272       -2.31228
H          2.18521       -1.59990       -3.34192
H          2.96954        0.87289        1.45284
H          4.78928       -0.84892        1.72177
H          3.19124       -1.46392        2.12877
H          3.93834       -1.89027        0.57688
H          4.47808        0.00403       -1.05957
H          3.68339        1.56965       -0.89368
H          5.03630        1.15052        0.16362
H         -0.42419        4.12366       -1.12708
H         -0.12271        4.01802        0.66667
H          2.01560        2.97819        0.25699
H          1.72150        3.04250       -1.54252
