48
2319.log
C          3.42613       -2.15886       -0.18419
C          3.07093       -0.82053        0.43966
P          1.69662        0.07892       -0.42522
C          2.55270        0.61855       -1.95371
O          1.77577        1.51975        0.31620
C          1.33991        1.73493        1.67999
N          2.41274        2.04975        2.55334
Rh        -0.30817       -1.01832       -0.56892
Cl         0.04196       -1.48520        1.75906
C         -3.11021       -0.11716        2.24094
C         -2.33416        1.03978        1.63205
P         -1.73100        0.70032       -0.07391
C         -3.33154        0.66307       -0.99441
O         -1.26276        2.22788       -0.36007
C         -0.72359        2.62745       -1.63413
N          0.33239        3.56742       -1.49537
C         -0.73362       -3.19157       -0.86563
C         -1.90579       -2.40078       -0.64101
H          4.27243       -2.60211        0.33774
H          3.68786       -2.04937       -1.23498
H          2.58535       -2.84488       -0.10382
H          3.93467       -0.14701        0.43658
H          2.74662       -0.97701        1.47229
H          1.95099        1.36395       -2.46692
H          3.52221        1.04637       -1.70542
H          2.67776       -0.24055       -2.60752
H          0.64804        2.58332        1.64346
H          0.82165        0.84506        2.04808
H          3.02762        1.25667        2.69123
H          2.95712        2.83091        2.20623
H          0.49542       -2.27653       -0.93187
H         -0.46420       -0.72003       -2.05011
H         -3.97589       -0.37970        1.63638
H         -3.45676        0.15155        3.23716
H         -2.46400       -0.98678        2.33265
H         -2.94922        1.94191        1.56316
H         -1.46493        1.26385        2.25226
H         -3.90313       -0.21953       -0.72605
H         -3.90021        1.56197       -0.76031
H         -3.12164        0.63009       -2.06209
H         -1.53550        3.08453       -2.21195
H         -0.35609        1.73837       -2.16203
H          0.01532        4.38629       -0.98786
H          1.10052        3.15157       -0.97766
H         -0.60611       -3.63891       -1.84733
H         -0.40544       -3.83296       -0.05212
H         -2.40227       -2.52051        0.31786
H         -2.59299       -2.28703       -1.47497
