40
232.log
C         -2.17339        3.06734        1.26835
C         -1.84139        2.62856       -0.14589
P         -1.79201        0.79392       -0.43299
O         -1.78775        0.57384       -1.90892
C         -3.55572        0.35445        0.12515
C         -3.57165       -1.02879       -0.16176
N         -3.40924       -2.13683       -0.42426
Rh        -0.16898       -0.33948        0.72118
Cl        -0.54326       -2.38385       -0.55176
C          3.91751       -1.07500       -1.04298
C          2.61931       -0.70617       -1.73940
P          1.38703        0.38575       -0.87066
O          0.77100        1.05384       -2.17725
C          2.49728        1.81655       -0.41328
C          3.31352        1.56706        0.72922
N          3.96688        1.36075        1.64621
C          0.62445       -1.56349        2.48975
C          1.65607       -1.40992        1.60101
H         -3.22974        2.92833        1.48520
H         -1.93676        4.12106        1.40374
H         -1.59171        2.48863        1.98431
H         -0.85003        2.99192       -0.43528
H         -2.55833        3.01684       -0.87637
H         -0.19572        0.90390       -2.25579
H         -4.25037        0.90853       -0.50928
H         -3.72026        0.54619        1.18374
H         -1.30377       -0.65255        1.66307
H          0.05558        0.89037        1.53696
H          4.49212       -0.19083       -0.77671
H          3.75582       -1.65588       -0.14106
H          4.52047       -1.67705       -1.72232
H          2.84278       -0.14623       -2.65534
H          2.08005       -1.61183       -2.03690
H         -1.83790       -2.58029       -0.65064
H          3.11397        2.04482       -1.28870
H          1.83858        2.66642       -0.20675
H          0.57638       -0.95549        3.38443
H          0.07098       -2.49568        2.53077
H          1.91257       -2.23280        0.94206
H          2.44399       -0.69398        1.79744
