40
2321.log
C         -1.21608       -2.78784       -0.04457
P         -1.57833       -1.04996       -0.50292
C         -2.45975       -1.30269       -2.08653
C         -3.04937       -0.79668        0.63697
O         -3.94137       -1.87518        0.44663
C         -3.64123        0.47646        0.30431
N         -4.15504        1.45534        0.00801
Rh        -0.14437        0.72050       -0.38457
Cl        -0.60792        0.80175        1.98286
C          1.77932       -1.74411        1.36048
P          1.79644       -0.19197        0.38285
C          2.85061        0.84050        1.45818
C          3.06421       -0.63514       -0.93924
O          3.34657        0.61895       -1.51604
C          4.22213       -1.26951       -0.36690
N          5.14217       -1.75863        0.10806
C         -0.62335        2.90216       -0.63160
C          0.73675        2.65353       -0.29696
H         -0.43213       -3.16919       -0.69763
H         -0.88460       -2.83011        0.99119
H         -2.12140       -3.38110       -0.16453
H         -2.89284       -0.35755       -2.41252
H         -1.73778       -1.63230       -2.83203
H         -3.24120       -2.05157       -1.96805
H         -2.66434       -0.74770        1.66894
H         -4.75400       -1.70964        0.93801
H         -1.38471        1.52272       -0.78675
H          0.22091        0.58435       -1.84718
H          1.05893       -1.61490        2.16664
H          2.76635       -1.93407        1.78120
H          1.48351       -2.58517        0.73645
H          3.19772        1.70922        0.90215
H          2.24459        1.16309        2.30421
H          3.70409        0.26132        1.81125
H          2.59227       -1.32751       -1.65617
H          3.85565        0.51399       -2.32823
H         -0.85140        3.26419       -1.62942
H         -1.27083        3.30848        0.14058
H          1.04592        2.90946        0.71205
H          1.49402        2.83353       -1.05421
