34
2325.log
C         -2.14863        1.18431       -2.37332
C         -1.91650        1.69562       -1.00568
O         -1.90263        2.83617       -0.64170
P         -1.59174        0.37043        0.32659
C         -1.65242        1.43453        1.81582
Br        -3.65804       -0.38657        0.39862
Rh         0.04709       -1.23442        0.22304
Cl         0.47192       -0.82715       -2.10410
C          3.65163        0.21456       -1.57265
C          3.42847       -0.29187       -0.19780
O          4.14876       -1.02983        0.42224
P          1.80727        0.14447        0.66060
C          2.44810        0.32974        2.36626
Br         1.60595        2.26291        0.09945
C          0.04941       -3.43681       -0.22704
C          1.33376       -2.92169        0.11542
H         -2.90382        0.39779       -2.37578
H         -1.21286        0.72801       -2.71709
H         -2.43615        1.99029       -3.04397
H         -2.49494        2.12455        1.74856
H         -0.73268        2.01436        1.88760
H         -1.75431        0.79984        2.69737
H         -1.00516       -2.29003       -0.14223
H         -0.19229       -1.49778        1.70009
H          4.53411       -0.24774       -2.00996
H          2.76277       -0.00843       -2.17274
H          3.77214        1.29790       -1.56551
H          2.80470       -0.64835        2.68756
H          3.26878        1.04691        2.40300
H          1.64248        0.65091        3.02668
H         -0.44059       -4.09927        0.47970
H         -0.12711       -3.69527       -1.26743
H          2.06631       -2.83496       -0.68278
H          1.76499       -3.21457        1.06879
