42
2327.log
C          1.88824       -0.66127        2.50425
P          1.91932       -1.06358        0.71557
C          2.80433       -2.65820        0.76443
O          3.30118       -0.16298        0.28295
C          3.09244        1.11678        0.10636
O          2.06429        1.68016        0.39224
C          4.30814        1.83883       -0.49539
O          5.43249        1.42924       -0.42985
O          3.94804        2.97337       -1.07636
Rh         0.15111       -0.95862       -0.71118
Cl        -0.69321       -2.21036        1.15535
C         -0.75565        2.50023       -0.82447
P         -0.86962        0.91734        0.08241
C         -0.78884        1.48219        1.82212
O         -2.52536        0.57963       -0.02275
C         -3.53623        1.37413        0.25600
O         -3.48825        2.51264        0.62707
C         -4.86253        0.62385        0.00191
O         -5.23613        0.27245       -1.08053
O         -5.51986        0.42901        1.13431
C         -0.59054       -2.51342       -2.14736
C         -1.48310       -1.41147       -1.97109
H          1.64699        0.38577        2.66222
H          1.13025       -1.28618        2.96860
H          2.86981       -0.88135        2.92308
H          3.12877       -2.92502       -0.23977
H          3.66940       -2.59225        1.42159
H          2.10908       -3.40992        1.13172
H          4.71729        3.43655       -1.45060
H          0.69344       -2.24508       -1.35151
H          0.82200       -0.16532       -1.81438
H          0.28381        2.81227       -0.79223
H         -1.04921        2.33951       -1.85987
H         -1.38956        3.25642       -0.36777
H          0.17985        1.94559        1.97852
H         -1.57703        2.21075        2.00193
H         -0.91475        0.62633        2.48304
H         -6.35750       -0.04324        0.98289
H         -0.11258       -2.63043       -3.11583
H         -0.86385       -3.45546       -1.67939
H         -2.38674       -1.59117       -1.39694
H         -1.62940       -0.73787       -2.81032
