50
2334.log
C          5.28790        1.37946        0.32079
C          3.93433        0.72874        0.58258
N          4.01458       -0.70710        0.39291
C          2.88817        1.20911       -0.40903
O          3.14857        1.52294       -1.54739
P          1.07013        1.09116        0.02858
C          0.56329        2.65611       -0.77315
C          1.04609        1.59441        1.79041
Rh         0.04236       -0.86777       -0.61030
Cl         1.12332       -1.90810        1.26422
C         -3.47602        2.64195       -1.28809
C         -3.54772        1.23203       -0.70013
N         -4.84394        0.88195       -0.12525
C         -2.57397        1.04503        0.45327
O         -2.25297        1.93744        1.20080
P         -1.84381       -0.63943        0.64983
C         -1.75938       -0.74103        2.47155
C         -3.26763       -1.74789        0.32178
C          0.76954       -2.56048       -1.87264
C         -0.52622       -2.78100       -1.30982
H          6.04535        0.89027        0.92588
H          5.54977        1.27578       -0.72934
H          5.25384        2.43735        0.56851
H          3.61434        0.90673        1.61255
H          3.17049       -1.18158        0.71481
H          4.19212       -0.93773       -0.57847
H         -0.47330        2.85992       -0.51259
H          1.19644        3.47479       -0.43197
H          0.66002        2.54637       -1.85144
H          0.03481        1.92847        2.02251
H          1.74504        2.41469        1.95613
H          1.30280        0.74349        2.41947
H          1.25871       -1.13332       -1.50620
H         -0.63786       -0.19493       -1.78844
H         -4.28730        2.79375       -1.99809
H         -2.53116        2.78468       -1.80571
H         -3.55668        3.38188       -0.49366
H         -3.31181        0.48883       -1.47071
H         -5.09586        1.56439        0.58359
H         -5.56172        0.90423       -0.84207
H         -1.18443        0.09729        2.85850
H         -1.25347       -1.66731        2.74195
H         -2.76775       -0.72352        2.88477
H         -4.15552       -1.37319        0.82755
H         -3.00737       -2.73677        0.69856
H         -3.45944       -1.81854       -0.74572
H          0.84064       -2.43287       -2.94893
H          1.59996       -3.11542       -1.44386
H         -0.59650       -3.50828       -0.50535
H         -1.37101       -2.80371       -1.99297
