48
2340.log
C         -2.92804       -2.66696        1.67388
C         -2.69551       -2.14323        0.26373
P         -1.39941       -0.83856        0.21729
C         -1.81350       -0.06898       -1.43085
O         -2.71363       -0.42450       -2.13494
O         -0.95983        0.90958       -1.73945
C         -2.95047        1.06977        1.33560
O         -2.03657        0.16787        1.41648
O         -3.39031        1.19724        0.07912
C         -4.39461        2.16022       -0.16497
Rh         0.76279       -1.36124        0.58698
Cl        -0.03601       -2.09918       -1.59441
C          1.94955        0.59995       -3.01078
C          2.66152        0.91594       -1.70235
P          1.60367        0.69406       -0.20403
C          2.84095        1.41083        0.99074
O          4.03154        1.35007        0.84413
O          2.24586        1.97336        2.03100
C          0.63501        2.28412       -0.21623
O          0.82930        3.20837       -0.95652
O         -0.23041        2.22350        0.77106
C         -0.98835        3.39051        1.07725
C          2.98063       -1.89604        0.96652
C          2.53036       -2.61459       -0.10587
H         -3.30660       -1.88218        2.32580
H         -3.65001       -3.48069        1.65403
H         -1.99573       -3.03807        2.09665
H         -3.60485       -1.69801       -0.15383
H         -2.37429       -2.94718       -0.40055
H         -1.12005        1.23632       -2.64310
H         -3.97984        2.95534       -0.78776
H         -5.20630        1.66939       -0.70269
H         -4.75795        2.57509        0.77678
H          0.28001       -2.63266        1.22994
H          0.85908       -0.87485        2.00853
H          2.66898        0.56921       -3.82660
H          1.44288       -0.36201       -2.96215
H          1.21769        1.37309       -3.23090
H          3.01879        1.95058       -1.70141
H          3.52360        0.25570       -1.56123
H          2.89018        2.28496        2.69160
H         -0.38642        4.06384        1.68995
H         -1.28135        3.90125        0.15785
H         -1.86040        3.04570        1.63553
H          3.61652       -1.03119        0.82194
H          3.05435       -2.36235        1.94251
H          2.23642       -3.65320        0.00238
H          2.76528       -2.30183       -1.11805
