46
2343.log
C          3.77871        3.52766       -1.09905
C          2.71156        2.64064       -0.47012
C          3.19554        1.20466       -0.30730
P          1.81832        0.12669        0.29198
N          1.66505        0.71574        1.85282
C          2.85006       -1.39570        0.57694
O          3.37690       -1.61211        1.63653
O          3.00785       -2.13726       -0.50828
Rh        -0.01823       -0.36024       -0.96357
Cl         0.02512       -2.09234        0.75189
C         -5.52848        1.04540       -0.71348
C         -4.13734        0.43382       -0.58916
C         -3.14538        1.45167       -0.04096
P         -1.44312        0.83912        0.33640
N         -0.82730        2.28761        0.91584
C         -1.77178       -0.10489        1.91344
O         -1.15480        0.15119        2.92026
O         -2.72699       -1.00748        1.83049
C         -0.25884       -1.91327       -2.54151
C         -1.49634       -1.33535       -2.11918
H          4.04400        3.16219       -2.08848
H          4.67694        3.53908       -0.48511
H          3.41582        4.54789       -1.19610
H          2.44010        3.03858        0.51024
H          1.81461        2.64059       -1.09650
H          4.02426        1.15146        0.40635
H          3.53185        0.80703       -1.26894
H          0.80229        0.42071        2.31311
H          2.45181        0.39111        2.41866
H          3.52682       -2.93768       -0.31401
H          0.92246       -1.18100       -1.84818
H          0.07695        0.77565       -1.95817
H         -5.89713        1.36468        0.25916
H         -6.22701        0.31922       -1.12187
H         -5.50812        1.91081       -1.37256
H         -4.17798       -0.43467        0.06921
H         -3.80227        0.09699       -1.56969
H         -2.99180        2.26198       -0.75973
H         -3.52731        1.89578        0.88590
H          0.18746        2.30969        0.92667
H         -1.18685        2.55769        1.82781
H         -2.77459       -1.54910        2.63864
H          0.07160       -1.71585       -3.55717
H         -0.03288       -2.91935       -2.19803
H         -2.14535       -1.94748       -1.49806
H         -2.02472       -0.71861       -2.84055
