36
2350.log
C          2.35969        0.50432       -2.56514
O          2.64156        0.27879       -1.19101
P          1.64420       -0.26803       -0.05130
C          2.11493       -2.01967        0.25498
C          2.73885        0.41763        1.29046
O          2.95687       -0.11588        2.34342
Rh        -0.33075        0.83791        0.54939
Cl        -1.07087        1.10225       -1.78111
C         -0.94787       -2.73812        1.87069
O         -1.35725       -2.47327        0.53506
P         -1.51525       -0.97531       -0.05861
C         -3.30017       -0.97069       -0.47123
C         -0.75592       -1.18186       -1.73952
O          0.45183       -1.32392       -1.86217
C         -0.74929        2.94587        1.07272
C         -1.89356        2.07663        1.18426
H          3.18642        1.10866       -2.94106
H          1.42363        1.04634       -2.69927
H          2.30840       -0.43663       -3.11098
H          3.09373       -2.16635       -0.19959
H          1.40257       -2.72048       -0.16712
H          2.18822       -2.14853        1.33356
H          3.14512        1.42858        1.06729
H          0.46966        2.15470        0.67558
H         -0.04683        0.49060        1.98611
H         -1.82301       -2.91876        2.49760
H         -0.37570       -1.89890        2.27827
H         -0.32433       -3.63201        1.85009
H         -3.87867       -0.87047        0.44577
H         -3.53529       -1.92359       -0.94554
H         -3.53468       -0.14635       -1.13875
H         -1.43152       -1.40136       -2.58122
H         -0.35169        3.36376        1.99309
H         -0.75011        3.65804        0.25052
H         -2.67833        2.19996        0.44165
H         -2.27743        1.88819        2.18314
