46
2352.log
C          1.96944        3.09943       -1.02394
N          1.48831        1.75340       -1.29160
P          1.31096        0.54087       -0.15325
C          1.16629        1.38991        1.47513
O          2.85313       -0.08567       -0.02634
C          3.97838        0.45004        0.46247
C          5.05477       -0.59101        0.58503
O          4.10655        1.60804        0.75277
Rh        -0.06185       -1.18542       -0.69142
Cl         0.30216       -1.84677        1.58391
C         -3.04187       -1.25697        2.10629
N         -2.41955       -0.04854        1.57366
P         -1.91439       -0.07194       -0.03093
C         -3.50590       -0.33664       -0.90239
O         -1.63306        1.55894       -0.24148
C         -2.53126        2.54633       -0.03056
C         -1.90442        3.89471       -0.27033
O         -3.66445        2.36584        0.30024
C          0.30072       -3.28506       -1.31718
C         -1.08247       -2.98046       -1.08834
H          2.22761        3.57092       -1.97264
H          1.23255        3.72506       -0.51074
H          2.86805        3.03977       -0.41405
H          0.73371        1.72819       -1.96288
H          1.98351        2.09497        1.60679
H          1.20664        0.62790        2.25179
H          0.21043        1.90544        1.52094
H          4.70882       -1.37803        1.25161
H          5.23980       -1.03442       -0.39048
H          5.96431       -0.14266        0.97301
H          1.15668       -2.00683       -1.13143
H         -0.26427       -0.72241       -2.12237
H         -3.44639       -1.02231        3.09069
H         -3.85882       -1.55923        1.45552
H         -2.32935       -2.07986        2.20437
H         -1.61433        0.17407        2.15857
H         -3.70300       -1.40311       -0.97107
H         -3.40205        0.06062       -1.91047
H         -4.31049        0.17181       -0.37714
H         -1.19112        4.10197        0.52516
H         -2.67422        4.66053       -0.27042
H         -1.37166        3.89202       -1.21762
H          0.60887       -3.49611       -2.33702
H          0.80091       -3.90468       -0.57757
H         -1.53918       -3.41346       -0.20111
H         -1.73970       -2.97814       -1.95441
