32
2355.log
C          2.33796       -0.07232        2.03012
P          1.66104       -0.11341        0.33678
C          3.06593       -0.91843       -0.42070
N          3.95125       -1.46088       -0.90496
C          2.15974        1.53637       -0.36606
O          3.02912        2.23427        0.05983
O          1.41560        1.77415       -1.43294
Rh        -0.23314       -1.20011       -0.35337
Cl        -1.26498       -0.84160        1.82825
C         -3.30551        0.69221       -0.28125
P         -1.48655        0.67001       -0.43781
C         -1.36271        2.02284       -1.60142
N         -1.28126        2.90493       -2.32841
C         -0.91051        1.66278        1.01735
O          0.25597        1.74512        1.33310
O         -1.87947        2.33931        1.60114
C         -0.75110       -3.36290       -0.41295
C         -1.78667       -2.50377       -0.91060
H          1.54778        0.19390        2.72914
H          2.73081       -1.05883        2.27729
H          3.13071        0.67692        2.05781
H          1.63677        2.61367       -1.87638
H          0.47002       -2.53615       -0.04391
H          0.30382       -1.23925       -1.76391
H         -3.65454        1.71391       -0.13249
H         -3.59711        0.07068        0.56439
H         -3.73010        0.28633       -1.20017
H         -1.55754        2.83048        2.37790
H         -0.25145       -4.01303       -1.12489
H         -0.91646       -3.82937        0.55534
H         -2.67343       -2.39371       -0.29093
H         -2.00332       -2.54432       -1.97480
