46
2358.log
C         -0.71395       -2.21901        2.47566
P         -0.76101       -1.64315        0.73185
C         -1.63096       -3.05327       -0.04082
C         -2.15017       -0.42568        0.79422
N         -2.79641       -0.44716       -0.50041
C         -3.96354        0.35320       -0.58708
F         -5.00411       -0.28868        0.06252
Rh         1.19148       -0.99435       -0.28212
Cl        -0.09614        0.22096       -1.91410
C          3.39381        1.35394        1.10847
P          1.62385        0.90348        0.91033
C          1.08746        1.04416        2.66009
C          0.99072        2.51246        0.23636
N         -0.43628        2.61420        0.48473
C         -1.20147        3.19913       -0.54215
F         -0.91871        4.56269       -0.71750
C          2.29204       -1.88899       -2.01010
C          2.89981       -0.70015       -1.49432
H         -1.69635       -2.58373        2.77252
H          0.01327       -3.02529        2.55108
H         -0.40629       -1.41261        3.13616
H         -1.01666       -3.94771        0.06184
H         -1.78651       -2.83543       -1.09561
H         -2.59704       -3.20052        0.44005
H         -2.87120       -0.75532        1.55273
H         -1.76487        0.57394        1.06396
H         -2.11834       -0.19848       -1.22446
H         -3.89398        1.34345       -0.09379
H         -4.27317        0.46536       -1.63042
H          1.05511       -2.24155       -1.16649
H          2.00396       -1.78618        0.72204
H          3.82526        1.57465        0.13400
H          3.92637        0.51232        1.54649
H          3.49273        2.22499        1.75544
H          1.37982        2.01118        3.06883
H          0.00780        0.92662        2.72435
H          1.56770        0.24944        3.22867
H          1.56215        3.34904        0.66384
H          1.16026        2.49587       -0.84343
H         -0.61951        3.04673        1.38318
H         -2.26950        3.15459       -0.30446
H         -0.99175        2.71156       -1.49865
H          2.82039       -2.82792       -1.87063
H          1.78783       -1.81417       -2.96991
H          2.83149        0.19347       -2.10979
H          3.85763       -0.80995       -0.99263
