44
2361.log
C          0.99987        1.43691        1.94619
P          1.46728       -0.09294        1.03984
C          1.90142       -1.20841        2.42162
C          3.17898        0.36041        0.50883
C          3.19113        1.41539       -0.59015
O          4.44356        1.58496       -1.19022
Cl         5.62937        2.22406       -0.14011
Rh         0.09594       -0.86975       -0.61223
Cl         0.11542       -3.06050        0.33729
C         -3.23242       -1.80555       -0.07618
P         -1.88674       -0.71004        0.50899
C         -1.90417       -1.17915        2.27982
C         -2.77030        0.91073        0.62662
C         -3.02585        1.51612       -0.74614
O         -3.49841        2.83218       -0.70294
Cl        -5.05300        2.98385       -0.01061
C          0.56680       -1.77819       -2.60288
C         -0.83273       -1.66601       -2.34056
H          0.12057        1.24435        2.55773
H          0.75490        2.21733        1.22862
H          1.81965        1.76400        2.58481
H          2.34479       -2.11189        2.00567
H          2.60041       -0.72114        3.10094
H          0.99830       -1.49653        2.95528
H          3.66032       -0.54961        0.13582
H          3.74173        0.71943        1.37618
H          2.56378        1.09357       -1.43045
H          2.80578        2.37208       -0.21498
H          1.37094       -1.18281       -1.40548
H          0.02386        0.52842       -1.20466
H         -3.48585       -1.58700       -1.11135
H         -4.11272       -1.68383        0.55491
H         -2.87086       -2.83112       -0.00795
H         -2.92569       -1.16113        2.65847
H         -1.49931       -2.18710        2.35816
H         -1.28730       -0.49874        2.86358
H         -3.71681        0.76933        1.15629
H         -2.14574        1.59803        1.20362
H         -2.07798        1.61848       -1.28789
H         -3.69979        0.87899       -1.33343
H          0.99470       -1.14595       -3.37579
H          1.00169       -2.77298       -2.56316
H         -1.36287       -2.59199       -2.13947
H         -1.40014       -0.95544       -2.93679
