46
2379.log
C          2.20306       -0.96321        2.09799
C          2.21466       -0.16774        0.79649
C          3.57483       -0.06122        0.19088
O          4.43396       -0.89883        0.21660
O          3.75036        1.11474       -0.45488
P          1.14081       -1.00049       -0.51575
C          1.77414       -2.70874       -0.37646
N          1.97204       -0.54932       -1.92707
Rh        -1.14882       -0.84031       -0.51151
Cl        -1.20733       -1.79553        1.69363
C         -1.43914        3.01145       -1.55765
C         -0.89142        2.79981       -0.15821
C          0.59186        2.72417       -0.07795
O          1.21532        2.96318        0.93311
O          1.19413        2.27855       -1.17986
P         -1.47309        1.16213        0.57025
C         -3.22657        1.61455        0.87716
N         -0.92461        1.35365        2.14159
C         -2.64193       -2.38787       -1.15019
C         -3.23697       -1.17826       -0.68488
H          2.52814       -0.33148        2.92263
H          1.19767       -1.32427        2.30968
H          2.88031       -1.81035        2.02913
H          1.82856        0.83617        0.97176
H          4.62486        1.12637       -0.87539
H          2.86217       -2.69450       -0.32887
H          1.35762       -3.17394        0.51426
H          1.44961       -3.27283       -1.25143
H          1.65298        0.35510       -2.26325
H          1.78319       -1.22925       -2.65814
H         -1.08117       -2.23632       -1.14319
H         -1.12939       -0.21735       -1.89252
H         -2.51690        3.14783       -1.52228
H         -0.99153        3.89185       -2.01465
H         -1.21676        2.14620       -2.17902
H         -1.23000        3.56588        0.54604
H          2.14870        2.14661       -0.99987
H         -3.80526        1.63313       -0.04184
H         -3.63966        0.86025        1.54449
H         -3.25804        2.58121        1.37698
H          0.01680        1.72953        2.21585
H         -0.96905        0.45451        2.62245
H         -2.73094       -2.62916       -2.20540
H         -2.69480       -3.25563       -0.49901
H         -3.72970       -1.21672        0.28157
H         -3.74864       -0.55835       -1.41574
