40
2380.log
C         -4.05345        1.17380       -0.63244
C         -3.39573        0.04161        0.13970
P         -1.67997       -0.29988       -0.44112
Br        -1.40355       -2.13926        0.80442
N         -2.03519       -0.90066       -1.95372
C         -1.00351       -1.33051       -2.88143
Rh        -0.13608        1.37886       -0.25051
Cl        -0.83107        1.39576        2.03721
C          1.40779       -1.13854        2.74612
C          2.29675       -0.17955        1.96975
P          1.74868        0.18943        0.24815
Br         1.90304       -1.86706       -0.63597
N          3.16919        0.89994       -0.27570
C          3.39386        1.18024       -1.68266
C         -0.40372        3.60161       -0.23892
C          0.92044        3.18218        0.07975
H         -4.00501        0.99179       -1.70532
H         -3.56016        2.12120       -0.42085
H         -5.09769        1.26687       -0.34040
H         -3.33326        0.28789        1.20374
H         -3.97510       -0.88304        0.03682
H         -2.85762       -1.49513       -1.99607
H         -1.40643       -1.31266       -3.89391
H         -0.17144       -0.62880       -2.82292
H         -0.62839       -2.33370       -2.65934
H         -1.27200        2.35219       -0.57380
H          0.22067        1.37138       -1.72722
H          1.33743       -2.10818        2.25556
H          0.40634       -0.72984        2.85657
H          1.82034       -1.29067        3.74156
H          3.31825       -0.57496        1.91221
H          2.32562        0.79360        2.47051
H          4.00972        0.54525        0.16992
H          2.47084        1.56262       -2.11821
H          4.17335        1.93619       -1.77909
H          3.69243        0.28503       -2.23870
H         -0.56363        4.11475       -1.18264
H         -1.02117        3.97415        0.57346
H          1.23406        3.27019        1.11671
H          1.70908        3.40528       -0.63230
