48
240.log
C          1.84420       -2.56069        0.06506
P          0.85954       -1.01091        0.05618
C          1.41244       -0.37410        1.67894
C          1.86417       -0.00902       -1.20537
C          3.07584        0.52184       -0.57948
O          3.14284        1.53583        0.06663
O          4.17899       -0.27792       -0.79076
C          5.18783       -0.30057        0.12117
O          5.02679       -0.35962        1.29909
O          6.34749       -0.32813       -0.50805
Rh        -1.36414       -1.38770       -0.48466
Cl        -1.42057       -2.27090        1.72941
C         -1.76403        1.18172        1.86519
P         -2.34979        0.49814        0.27389
C         -4.16105        0.47368        0.60657
C         -2.25100        1.93959       -0.92710
C         -2.11788        3.27126       -0.28246
O         -3.00421        4.04689       -0.09886
O         -0.86206        3.58885        0.22814
C          0.30399        3.18459       -0.31961
O          0.43975        2.81677       -1.45145
O          1.26257        3.28083        0.57161
C         -2.06807       -3.44309       -1.33024
C         -3.08922       -2.42773       -0.96940
H          1.37490       -3.23433        0.78285
H          1.83559       -3.02751       -0.91972
H          2.86972       -2.37050        0.37804
H          1.02039       -1.07388        2.41081
H          2.49989       -0.34855        1.73892
H          1.01199        0.60918        1.89536
H          1.23856        0.81383       -1.55235
H          2.07987       -0.69599       -2.02160
H          7.08783       -0.38870        0.11523
H         -0.99097       -2.92707       -1.11359
H         -1.28194       -0.82285       -1.89158
H         -1.81188        0.36663        2.58720
H         -2.41057        2.00186        2.17873
H         -0.73756        1.53144        1.80468
H         -4.68112        1.14252       -0.07577
H         -4.54044       -0.53665        0.47770
H         -4.35184        0.78664        1.63125
H         -1.41154        1.75592       -1.59909
H         -3.17787        1.91059       -1.50252
H          2.09849        2.86362        0.24752
H         -2.04323       -3.70140       -2.38709
H         -2.07214       -4.32924       -0.69770
H         -3.69790       -2.69399       -0.10543
H         -3.69898       -2.06119       -1.79357
