42
247.log
C          1.40409        1.16549        2.62043
C          1.48157        1.86556        1.27143
P          1.60993        0.70048       -0.16348
Br         3.62126       -0.07865        0.26349
C          2.10669        1.87375       -1.50674
C          0.95064        2.72662       -2.00450
Rh         0.10983       -0.95951       -0.71422
Cl         0.53728       -1.92622        1.42948
C         -4.67077        0.19593       -0.54937
C         -3.34210       -0.38038       -1.02008
P         -1.85589       -0.08228        0.04795
Br        -1.98164        2.11760        0.13706
C         -2.49806       -0.41387        1.74920
C         -2.85493       -1.87873        1.95427
C          0.48165       -2.99634       -1.58516
C         -0.88900       -2.75123       -1.30498
H          1.24838        1.89669        3.41122
H          0.58400        0.45019        2.64250
H          2.32310        0.61997        2.83084
H          2.36363        2.51570        1.23096
H          0.59537        2.48514        1.11353
H          2.49628        1.26078       -2.32724
H          2.92166        2.50458       -1.13699
H          1.27271        3.33232       -2.84869
H          0.57970        3.39071       -1.22711
H          0.12764        2.09434       -2.33470
H          1.33706       -1.66920       -1.27950
H         -0.14250       -0.34523       -2.08647
H         -5.01010       -0.27744        0.36943
H         -4.60657        1.27089       -0.38750
H         -5.42692        0.02026       -1.31274
H         -3.08301        0.02396       -2.00544
H         -3.42202       -1.46570       -1.12946
H         -1.70646       -0.13278        2.45125
H         -3.36126        0.23513        1.93147
H         -3.25275       -2.02256        2.95711
H         -1.96344       -2.49444        1.85509
H         -3.60290       -2.21552        1.23754
H          0.79135       -3.06234       -2.62344
H          1.02930       -3.65256       -0.91562
H         -1.32470       -3.27217       -0.45722
H         -1.55984       -2.64414       -2.15352
