40
26.log
C         -0.20962        3.96886        0.17552
C         -0.86070        2.84879        0.97595
N         -1.76632        2.08720        0.14132
P         -1.94487        0.44952        0.13532
C         -2.93673        0.24495       -1.37736
F         -3.21841        0.24671        1.18512
Rh        -0.17757       -0.91067        0.57805
Cl        -0.76775       -2.10724       -1.40255
C          4.15494        0.55975        0.87448
C          2.88386        1.40164        0.91438
N          2.18462        1.44226       -0.35176
P          1.17099        0.20868       -0.84753
C          2.12186       -0.70114       -2.12792
F          0.34986        1.12669       -1.91718
C          0.01897       -2.85719        1.62421
C          1.23982       -2.39488        1.03127
H          0.31372        3.54879       -0.67848
H         -0.96049        4.67013       -0.18268
H          0.50050        4.50766        0.79655
H         -0.09751        2.15503        1.33522
H         -1.38676        3.26472        1.84499
H         -2.53155        2.62831       -0.23934
H         -2.30687        0.44756       -2.23890
H         -3.78705        0.92444       -1.34702
H         -3.28589       -0.78373       -1.43040
H         -1.08662       -1.79797        1.43620
H          0.20524       -0.14582        1.83077
H          4.84535        0.93997        0.12338
H          4.65071        0.58082        1.84133
H          3.90713       -0.47182        0.63136
H          3.12387        2.42951        1.20494
H          2.19188        0.98426        1.65005
H          2.76117        1.81072       -1.10175
H          1.44524       -1.37306       -2.64991
H          2.91329       -1.28104       -1.66014
H          2.54492        0.01918       -2.82762
H         -0.03353       -2.89876        2.70835
H         -0.48762       -3.68294        1.13208
H          1.58210       -2.92605        0.14681
H          2.04408       -2.11142        1.70666
