42
264.log
C          3.57904        2.10374       -2.30546
O          2.83605        1.13764       -1.56634
C          2.73139        1.32771       -0.25951
O          3.19544        2.23348        0.36863
P          1.73755       -0.08988        0.41208
C          1.95921        0.20403        2.19819
C          3.04352       -1.38763        0.16300
F          4.25895       -0.93994        0.61742
Rh        -0.22544       -0.78864       -0.55073
Cl        -0.00884       -2.41529        1.19798
C         -4.72676        1.17502       -1.58422
O         -3.43204        0.95192       -1.02654
C         -3.36580        0.71162        0.27119
O         -4.29303        0.68158        1.03162
P         -1.57432        0.49233        0.72741
C         -1.74958        0.23106        2.52459
C         -1.18636        2.31274        0.65878
F          0.16077        2.45339        0.87699
C         -0.61774       -2.45682       -1.98063
C         -1.80517       -1.86831       -1.43735
H          3.41127        1.88305       -3.35651
H          3.23175        3.10872       -2.05996
H          4.64029        2.02449       -2.06166
H          1.52587        1.16652        2.46101
H          3.02890        0.22681        2.40982
H          1.47762       -0.60127        2.75100
H          3.16056       -1.63311       -0.89881
H          2.77477       -2.27936        0.74071
H          0.59728       -1.69009       -1.48081
H         -0.26381        0.25699       -1.64750
H         -5.34667        0.28578       -1.45766
H         -4.57296        1.38826       -2.63867
H         -5.21078        2.01740       -1.08684
H         -0.89778        0.66917        3.04257
H         -1.75470       -0.84287        2.71222
H         -2.68536        0.67301        2.86818
H         -1.70724        2.88375        1.43678
H         -1.39675        2.71357       -0.33803
H         -0.42922       -2.32089       -3.04187
H         -0.34058       -3.44112       -1.61212
H         -2.35600       -2.45174       -0.70343
H         -2.43927       -1.30230       -2.11373
