48
265.log
C         -2.07922        3.96619       -0.33089
C         -1.50560        2.64658        0.16474
C         -2.51454        1.51340        0.01074
P         -1.80554       -0.10375        0.49584
C         -1.73503        0.06596        2.25817
N         -1.72155        0.12819        3.40235
C         -3.36073       -1.15533        0.49999
C         -3.27638       -2.40396        1.31763
O         -4.31102       -0.79486       -0.13703
Rh        -0.01090       -1.05856       -0.54789
Cl        -0.58374        0.26142       -2.46125
C          4.65239       -1.57993        2.09075
C          3.24266       -1.12417        1.73644
C          3.26512       -0.10703        0.59849
P          1.55598        0.44613        0.15380
C          1.20569        1.28606        1.67608
N          0.96574        1.80870        2.66649
C          2.05475        1.97027       -0.85357
C          2.39127        1.66669       -2.26423
O          2.07044        3.04521       -0.32344
C          0.17080       -2.80299       -1.93702
C          1.40397       -2.11800       -1.71489
H         -1.34184        4.75669       -0.21953
H         -2.96582        4.23620        0.23889
H         -2.35059        3.89193       -1.38168
H         -0.60803        2.40630       -0.41618
H         -1.20987        2.74109        1.21353
H         -3.41071        1.68750        0.61696
H         -2.81803        1.40666       -1.03726
H         -3.95880       -3.16197        0.93839
H         -2.25216       -2.77595        1.34293
H         -3.56982       -2.15285        2.33797
H         -0.95837       -2.13334       -1.09881
H          0.28187       -1.92364        0.66979
H          4.62141       -2.30246        2.90188
H          5.13405       -2.04608        1.23339
H          5.25859       -0.73459        2.40835
H          2.76953       -0.67555        2.61354
H          2.63933       -1.98670        1.44206
H          3.84034        0.77893        0.88976
H          3.72639       -0.54548       -0.29255
H          2.82151        2.53160       -2.76301
H          3.06260        0.81041       -2.32263
H          1.45232        1.37904       -2.75644
H          0.06204       -3.80252       -1.52589
H         -0.30402       -2.67291       -2.90526
H          1.78687       -1.52153       -2.53861
H          2.17302       -2.63926       -1.15067
