38
27.log
C          3.76673        1.02308        1.46358
C          2.33541        0.50680        1.39019
P          1.79359       -0.10211       -0.26834
C          3.12753       -1.26871       -0.73213
C          2.30343        1.30229       -1.23364
N          2.57680        2.22401       -1.85773
Rh        -0.35052       -0.81418       -0.51752
Cl         0.11010       -1.92407        1.56078
C         -1.00776        3.05590       -1.19776
C         -0.87553        2.66779        0.26835
P         -1.36336        0.90788        0.55112
C         -1.55463        0.84437        2.37146
C         -3.08383        1.08653        0.14264
N         -4.19444        1.18905       -0.11957
C         -1.20671       -2.73859       -1.28237
C         -2.17718       -1.85671       -0.70858
H          3.95798        1.76668        0.69109
H          4.48632        0.21527        1.35844
H          3.93226        1.48941        2.43312
H          1.63382        1.29962        1.67369
H          2.18118       -0.32913        2.07871
H          3.05256       -2.13119       -0.06794
H          2.97059       -1.59441       -1.76095
H          4.10959       -0.80699       -0.64248
H          0.15572       -2.06659       -1.25701
H         -0.55992       -0.12924       -1.85692
H         -2.03879        2.94800       -1.53005
H         -0.70055        4.08912       -1.34334
H         -0.37689        2.42152       -1.81829
H          0.16329        2.78762        0.59381
H         -1.51073        3.30200        0.89549
H         -2.16383        1.67658        2.72421
H         -2.02461       -0.10304        2.63562
H         -0.56948        0.86980        2.83634
H         -1.25467       -2.91183       -2.35369
H         -0.94108       -3.62308       -0.70917
H         -2.59029       -2.13619        0.25792
H         -2.90529       -1.40099       -1.37456
