46
273.log
C         -4.13699        1.87096        0.50880
O         -3.48909        0.75863       -0.07827
C         -3.04102       -0.19346        0.83538
O         -4.06076       -1.06322        1.22453
P         -1.62547       -1.07980       -0.02439
C         -1.24902       -2.27812        1.31282
C         -2.56726       -2.15003       -1.18379
Rh        -0.08313        0.40097       -0.82437
Cl        -0.10159        1.06439        1.48897
C          3.29892        1.65864        2.06654
O          3.20185        0.91008        0.86684
C          2.79082       -0.40919        1.03268
O          3.86740       -1.27053        1.25154
P          1.85719       -0.77113       -0.55364
C          3.19548       -0.47281       -1.77320
C          1.86862       -2.60814       -0.52156
C         -0.35529        2.54181       -1.38915
C          1.00885        2.12326       -1.39606
H         -5.01802        1.55657        1.07675
H         -3.45143        2.40462        1.17438
H         -4.43847        2.51979       -0.31143
H         -2.65431        0.26239        1.75746
H         -4.54687       -1.31683        0.42923
H         -0.81444       -3.18274        0.89260
H         -0.55070       -1.82059        2.01175
H         -2.17769       -2.51975        1.83106
H         -1.85033       -2.72197       -1.77059
H         -3.13705       -1.51501       -1.86051
H         -3.22456       -2.83485       -0.64877
H         -1.28373        1.30549       -1.09362
H         -0.16058       -0.08286       -2.25947
H          3.68283        2.63775        1.78560
H          2.31137        1.76397        2.52400
H          3.98550        1.17869        2.77040
H          2.11495       -0.53298        1.88877
H          4.57306       -1.01022        0.64589
H          4.02340       -1.16563       -1.62317
H          2.78169       -0.61833       -2.76970
H          3.54105        0.55426       -1.67619
H          1.31592       -2.95570        0.34762
H          1.38955       -2.97920       -1.42564
H          2.89146       -2.97733       -0.46067
H         -0.81624        2.79336       -2.34019
H         -0.68341        3.16981       -0.56520
H          1.64622        2.47142       -0.58858
H          1.50900        2.06415       -2.35901
