40
278.log
C          3.39327        1.13189       -0.87631
O          3.03311       -0.20755       -0.57836
P          1.52323       -0.74185       -0.31482
C          1.11513       -1.49968       -1.93066
O          1.92836       -2.12864        0.40213
C          2.44747       -2.11978        1.71895
Rh         0.03449        0.71457        0.63811
Cl         0.16540        1.77996       -1.50252
C         -2.24376       -0.22652       -2.59523
O         -2.71569       -0.12037       -1.25806
P         -1.86305       -0.42019        0.05313
C         -3.28684       -0.23936        1.20064
O         -1.76713       -2.04411       -0.10994
C         -1.20865       -2.86301        0.89507
C          0.29203        2.73930        1.55594
C         -1.07571        2.33727        1.39131
H          2.59466        1.65714       -1.40177
H          4.27780        1.08556       -1.51172
H          3.63974        1.66726        0.04487
H          1.93993       -2.15476       -2.20242
H          0.99956       -0.71100       -2.66941
H          0.19195       -2.06464       -1.85017
H          2.39193       -3.14332        2.08987
H          1.86354       -1.45831        2.36715
H          3.48667       -1.78604        1.71665
H          1.19094        1.60922        1.12763
H          0.00787        0.02922        1.99429
H         -1.37715        0.41560       -2.75642
H         -3.06637        0.10621       -3.22813
H         -1.99257       -1.26065       -2.83472
H         -4.07282       -0.91996        0.88149
H         -2.96971       -0.47417        2.21343
H         -3.64957        0.78260        1.16444
H         -1.99996       -3.24490        1.54423
H         -0.70376       -3.69630        0.40496
H         -0.48670       -2.30753        1.49672
H          0.66773        2.83989        2.57066
H          0.66792        3.50306        0.87998
H         -1.64559        2.83686        0.61207
H         -1.64968        2.14952        2.29481
