38
28.log
C          3.76650        1.02349        1.46348
C          2.33509        0.50745        1.39004
P          1.79350       -0.10219       -0.26831
C          3.12738       -1.26920       -0.73123
C          2.30373        1.30182       -1.23398
N          2.57728        2.22342       -1.85816
Rh        -0.35063       -0.81416       -0.51755
Cl         0.11042       -1.92402        1.56070
C         -1.00789        3.05557       -1.19836
C         -0.87561        2.66787        0.26786
P         -1.36326        0.90798        0.55110
C         -1.55404        0.84476        2.37150
C         -3.08384        1.08649        0.14305
N         -4.19453        1.18893       -0.11889
C         -1.20691       -2.73853       -1.28238
C         -2.17726       -1.85678       -0.70817
H          3.95800        1.76683        0.69082
H          4.48597        0.21552        1.35868
H          3.93198        1.49005        2.43293
H          1.63363        1.30058        1.67298
H          2.18057       -0.32810        2.07896
H          3.05249       -2.13105       -0.06620
H          2.97030       -1.59589       -1.75971
H          4.10945       -0.80739       -0.64217
H          0.15552       -2.06657       -1.25714
H         -0.56016       -0.12927       -1.85700
H         -2.03881        2.94693       -1.53075
H         -0.70134        4.08896       -1.34411
H         -0.37653        2.42147       -1.81866
H          0.16319        2.78793        0.59329
H         -1.51091        3.30217        0.89482
H         -2.16272        1.67732        2.72436
H         -2.02444       -0.10237        2.63588
H         -0.56875        0.86972        2.83611
H         -1.25518       -2.91154       -2.35372
H         -0.94110       -3.62313       -0.70945
H         -2.59002       -2.13646        0.25842
H         -2.90565       -1.40107       -1.37383
