46
282.log
C          1.71939        2.27509       -1.47965
C          2.54800        1.64121       -0.37100
O          3.69194        0.96833       -0.85382
O          3.36065       -0.32093       -1.32941
P          1.50652        0.48984        0.68991
C          2.82496       -0.26118        1.71574
C          0.88555        1.70563        1.91100
Rh         0.12359       -1.09930       -0.25599
Cl        -0.50131       -1.48414        2.03422
C         -2.55590        1.50131        1.63564
C         -2.38847        1.56627        0.12430
O         -1.31936        2.36228       -0.32024
O         -1.48374        3.73982        0.02076
P         -1.88843       -0.07523       -0.62332
C         -2.33515        0.27935       -2.36959
C         -3.37089       -1.01759       -0.08986
C          0.55099       -3.27154       -0.48044
C         -0.78595       -2.93646       -0.83336
H          2.35084        2.86957       -2.13818
H          0.96167        2.91094       -1.03371
H          1.21147        1.50243       -2.05613
H          2.98238        2.41723        0.27094
H          3.06082       -0.18747       -2.24225
H          3.45079       -0.90886        1.10590
H          2.33960       -0.85130        2.49261
H          3.43647        0.51781        2.17072
H          0.36439        1.15268        2.68964
H          0.20333        2.40942        1.44769
H          1.72777        2.24130        2.34874
H          1.37368       -1.94345       -0.08646
H          0.52778       -0.82780       -1.68761
H         -2.37415        2.48435        2.06662
H         -3.56685        1.19222        1.88685
H         -1.85356        0.78847        2.06276
H         -3.32475        1.90900       -0.35254
H         -1.83080        4.15122       -0.78399
H         -2.20109       -0.63034       -2.95189
H         -1.66404        1.04135       -2.75963
H         -3.36829        0.61533       -2.45068
H         -3.22039       -1.35101        0.93549
H         -4.26404       -0.39709       -0.15285
H         -3.48769       -1.88757       -0.73290
H          1.23132       -3.58097       -1.26815
H          0.70566       -3.78877        0.46198
H         -1.56349       -3.24057       -0.13965
H         -1.07058       -3.01685       -1.87944
