48
284.log
C         -2.96540        2.62527        1.88065
O         -2.34048        1.49034        1.28626
C         -2.32058        1.45670       -0.04317
O         -2.66021        2.33589       -0.77444
P         -1.54685       -0.16362       -0.53815
C         -2.28635       -0.45749       -2.18873
O         -2.66316       -1.15489        0.37242
C         -3.93603       -0.83251        0.49842
C         -4.69213       -1.79804        1.37546
O         -4.42737        0.13686       -0.02582
Rh         0.36952       -1.15287        0.31301
Cl         1.21777       -1.03309       -1.95297
C          5.32255        0.02686        0.80062
O          3.94143        0.12236        0.45909
C          3.17995        0.87920        1.22527
O          3.53338        1.48286        2.20042
P          1.44629        0.83705        0.55460
C          0.79364        2.35260        1.34296
O          1.84627        1.35575       -0.92958
C          0.92301        1.01712       -1.93642
C          1.46981        1.42267       -3.28475
O         -0.28704        1.18363       -1.66268
C          0.90838       -3.29086        0.52262
C          1.94725       -2.38646        0.94084
H         -2.51286        3.54629        1.50783
H         -4.02883        2.62683        1.63423
H         -2.81946        2.52989        2.95365
H         -3.04471       -1.23476       -2.12573
H         -1.51237       -0.74746       -2.89432
H         -2.72608        0.48780       -2.50492
H         -5.74583       -1.53736        1.39254
H         -4.55865       -2.80994        1.00172
H         -4.27992       -1.75120        2.38072
H         -0.30672       -2.51512        0.09023
H         -0.17391       -1.10533        1.71205
H          5.77025       -0.65470        0.08202
H          5.43028       -0.35645        1.81707
H          5.79286        1.00977        0.74071
H          0.43926        2.11738        2.34276
H         -0.02852        2.72702        0.73700
H          1.58872        3.09644        1.39518
H          2.50193        1.10273       -3.38509
H          0.85808        0.98857       -4.06931
H          1.41500        2.50783       -3.34907
H          0.42954       -3.88836        1.29284
H          1.07533       -3.84476       -0.39872
H          2.82636       -2.31494        0.30554
H          2.18093       -2.35307        2.00142
