36
285.log
C         -1.17099        1.76261       -1.56771
P         -1.49779        0.48512       -0.29946
C         -2.55068        1.42676        0.88887
Cl        -3.22534        0.22166        1.99518
C         -2.81748       -0.47615       -1.17349
Cl        -4.16376        0.52629       -1.75083
Rh         0.06685       -0.97935        0.47631
Cl         0.20890       -1.52359       -1.86658
C          3.16650        0.15124        1.69230
P          1.98317        0.20546        0.30350
C          3.05800       -0.25470       -1.12734
Cl         4.50072        0.77239       -1.23707
C          1.91590        2.03296        0.03268
Cl         0.71160        2.63196        1.18008
C         -0.16769       -3.14825        0.95834
C          1.18593       -2.69978        1.01086
H         -0.50138        1.33659       -2.31443
H         -2.11398        2.03894       -2.03947
H         -0.72287        2.64361       -1.11416
H         -3.37447        1.93514        0.38410
H         -1.96196        2.13105        1.47533
H         -3.23766       -1.22615       -0.49905
H         -2.36260       -0.96479       -2.03819
H         -1.11429       -1.93005        0.66974
H         -0.06751       -0.57154        1.92549
H          4.06694        0.71561        1.45183
H          2.68071        0.57508        2.57074
H          3.42441       -0.88566        1.90212
H          2.49201       -0.15703       -2.05594
H          3.38583       -1.29027       -1.02109
H          1.58624        2.27707       -0.97833
H          2.86850        2.51783        0.25170
H         -0.64518       -3.43547        1.89032
H         -0.46039       -3.75719        0.10747
H          1.84401       -3.02731        0.20995
H          1.66197       -2.66959        1.98729
