50
290.log
C         -1.77966       -1.85361       -2.66147
C         -2.20683       -0.50645       -2.08968
P         -1.99181       -0.39177       -0.25039
C         -3.00093       -1.83448        0.24064
N         -3.06678        0.93843       -0.00324
C         -2.70378        2.17569       -0.67546
C         -3.98458        1.01994        0.98984
O         -4.60908        2.01153        1.27093
Rh         0.01806       -0.26393        0.83210
Cl         0.43401       -2.48205        0.00846
C          1.14630        3.35145       -0.37413
C          1.41937        2.25640       -1.39786
P          1.43826        0.49746       -0.79661
C          1.41896       -0.30193       -2.44730
N          3.11701        0.24441       -0.46957
C          3.67697       -1.08408       -0.68758
C          3.80436        1.08473        0.34124
O          4.91357        0.89288        0.77220
C          0.51519       -0.97465        2.91388
C          1.63257       -0.45106        2.20627
H         -1.61060       -1.77588       -3.73378
H         -0.86367       -2.19963       -2.18806
H         -2.54763       -2.60465       -2.49705
H         -1.62810        0.30249       -2.54350
H         -3.26597       -0.31787       -2.29417
H         -3.13395       -1.87655        1.32029
H         -3.96729       -1.82324       -0.26281
H         -2.42950       -2.71330       -0.05933
H         -3.19883        2.25123       -1.64482
H         -1.62107        2.20822       -0.80829
H         -3.02430        3.01216       -0.05361
H         -4.12890        0.06308        1.51510
H         -0.77608       -0.82595        2.01631
H         -0.27295        1.12818        1.34355
H          0.38251        3.03228        0.33343
H          2.03834        3.61330        0.18864
H          0.79522        4.25132       -0.87593
H          2.36208        2.43630       -1.92184
H          0.61543        2.26772       -2.14181
H          0.50139       -0.03856       -2.96645
H          1.45447       -1.38268       -2.33399
H          2.27599        0.04450       -3.02391
H          4.50073       -1.22147        0.01351
H          2.91714       -1.84722       -0.51518
H          4.06438       -1.17840       -1.70233
H          3.23729        2.00525        0.55641
H          0.12879       -0.40907        3.75635
H          0.46166       -2.05208        3.04370
H          2.37908       -1.16297        1.86711
H          2.05156        0.49308        2.54370
