40
291.log
C         -3.02019        2.10682       -0.23071
P         -1.95384        0.64008       -0.46554
C         -2.73738       -0.08401       -1.95326
C         -2.63446       -0.38935        0.92822
N         -4.03174       -0.69396        0.71274
Cl        -4.25493       -2.26350       -0.04025
Rh         0.29372        1.03174       -0.37740
Cl        -0.15269        1.41091        1.94979
C          1.02485       -1.68242        1.76513
P          0.99729       -1.08535        0.03209
C          0.12784       -2.47255       -0.80376
C          2.71629       -1.56542       -0.49419
N          3.66293       -0.77894        0.24493
Cl         5.31982       -1.13927       -0.22385
C          1.40061        2.98373       -0.41868
C          2.23357        1.84970       -0.16545
H         -4.05487        1.78460       -0.11623
H         -2.69190        2.63608        0.66324
H         -2.92353        2.76479       -1.09383
H         -3.81510       -0.14077       -1.81940
H         -2.50181        0.56910       -2.79240
H         -2.32883       -1.07037       -2.15847
H         -2.01503       -1.28006        1.08538
H         -2.52993        0.23992        1.81732
H         -4.52121       -0.75756        1.60254
H         -0.02677        2.50934       -0.65426
H          0.49943        0.80596       -1.86405
H          1.52595       -2.64841        1.83673
H          0.00156       -1.76971        2.12563
H          1.52213       -0.94000        2.38742
H         -0.93311       -2.44089       -0.56349
H          0.24295       -2.35239       -1.87967
H          0.54089       -3.43203       -0.49418
H          2.84353       -2.65405       -0.36785
H          2.81302       -1.31890       -1.55618
H          3.61043       -1.00185        1.23667
H          1.52656        3.50464       -1.36390
H          1.19499        3.64623        0.41809
H          2.61499        1.73000        0.84383
H          2.94408        1.56001       -0.93237
