46
301.log
C          2.62291       -0.04250       -2.54753
C          2.58652       -0.92210       -1.33648
O          3.54161       -1.49791       -0.88282
P          0.90650       -1.28939       -0.56898
C         -0.12475       -1.51123       -2.07155
C          1.28971       -3.06085       -0.13667
C          0.07449       -3.96254       -0.09880
Cl        -1.23151       -3.18455        0.82188
Rh         0.52311        0.25078        1.09840
Cl         2.47930        1.37555        0.21638
C          0.64607        3.52066       -1.47227
C         -0.24184        2.34153       -1.60796
O         -0.45164        1.74975       -2.64156
P         -0.92941        1.61359       -0.02683
C         -1.57167        3.10743        0.83017
C         -2.49831        0.95055       -0.75047
C         -3.24270        0.05175        0.21328
Cl        -4.74819       -0.53879       -0.54695
C          1.46835        0.43787        3.11302
C          0.59665        1.52052        2.78701
H          1.78639        0.64961       -2.56604
H          2.57723       -0.68251       -3.42966
H          3.56153        0.50689       -2.57039
H          0.35198       -2.22299       -2.74667
H         -1.10843       -1.87685       -1.78149
H         -0.24113       -0.55198       -2.57415
H          2.00400       -3.44643       -0.87134
H          1.78937       -3.04876        0.83618
H          0.29507       -4.91021        0.39410
H         -0.31997       -4.15584       -1.09593
H          1.47803       -0.59776        1.94103
H         -0.64813       -0.47656        1.69854
H          0.95173        3.89250       -2.44755
H          1.52845        3.16979       -0.91813
H          0.18071        4.31033       -0.88928
H         -2.21299        2.78233        1.64841
H         -0.74672        3.68054        1.24809
H         -2.14707        3.72527        0.14061
H         -2.23719        0.39727       -1.65540
H         -3.12416        1.79994       -1.04121
H         -3.53636        0.58045        1.12024
H         -2.65274       -0.82607        0.47592
H          1.15604       -0.25194        3.89186
H          2.53657        0.63574        3.10615
H          1.06618        2.47368        2.55973
H         -0.33034        1.60637        3.34750
