44
309.log
C          3.60001        2.30617       -0.21419
C          2.11867        1.98329       -0.37490
P          1.64777        0.28010        0.17365
C          2.36673        0.08446        1.89577
O          3.76065        0.07427        1.95300
C          2.96857       -0.63575       -0.75893
O          3.69846       -1.48110       -0.29888
O          2.96412       -0.30812       -2.04562
Rh        -0.24565       -0.91460       -0.43005
Cl        -0.99513       -1.13404        1.88222
C         -1.43311        2.29981       -2.57190
C         -2.49740        1.76977       -1.62168
P         -1.73928        0.78011       -0.25263
C         -1.12264        2.12044        0.88374
O         -0.05121        1.67962        1.66493
C         -3.33015        0.40885        0.64196
O         -3.76161        1.05081        1.55805
O         -3.96821       -0.60364        0.07380
C         -0.48273       -3.11053       -0.75374
C         -1.67100       -2.36445       -1.01893
H          4.21528        1.68714       -0.86308
H          3.92236        2.15245        0.81183
H          3.77329        3.34792       -0.47864
H          1.81364        2.06128       -1.42285
H          1.52640        2.67934        0.21798
H          2.02781        0.94163        2.48316
H          1.93037       -0.83041        2.32419
H          4.08374       -0.70588        1.47623
H          3.58939       -0.85360       -2.55446
H          0.67978       -2.13624       -0.35357
H          0.10137       -0.69272       -1.88240
H         -1.89516        2.77672       -3.43352
H         -0.79528        3.02887       -2.07740
H         -0.80747        1.47894       -2.91926
H         -3.17645        1.10077       -2.15841
H         -3.08239        2.58421       -1.18223
H         -0.76419        2.96100        0.28063
H         -1.96681        2.44927        1.50947
H         -0.35532        0.87106        2.13587
H         -4.79692       -0.80826        0.54292
H          0.02934       -3.57082       -1.59374
H         -0.46189       -3.71388        0.14986
H         -2.48435       -2.46064       -0.30805
H         -2.00156       -2.28272       -2.05051
