40
314.log
C          1.50355       -3.00516       -0.60051
P          0.67662       -1.69576        0.39464
C          0.16203       -2.66503        1.84729
O          1.94616       -0.97473        1.13309
C          2.74154       -0.02718        0.44641
C          3.79422       -0.66543       -0.31540
N          4.60906       -1.20408       -0.90770
Rh        -0.82750       -0.38936       -0.72533
Cl        -2.50974       -1.13877        0.78511
C         -0.50865        0.95191        2.54144
P         -0.85032        1.30971        0.78691
C         -2.42455        2.24542        0.95147
O          0.22941        2.54752        0.69327
C          0.58246        3.12369       -0.54811
C          2.01996        3.29542       -0.59861
N          3.15743        3.40098       -0.60835
C         -2.17966       -0.84866       -2.44436
C         -2.32719        0.48154       -1.94037
H          1.96043       -2.56563       -1.48618
H          0.75884       -3.73343       -0.91450
H          2.27192       -3.49211       -0.00121
H          1.03535       -3.15803        2.27087
H         -0.57250       -3.39786        1.52065
H         -0.30357       -2.02034        2.58770
H          3.19037        0.63727        1.19469
H          2.12876        0.57214       -0.24449
H         -1.02705       -1.57543       -1.68199
H          0.25681        0.15486       -1.64777
H         -1.32056        0.34157        2.92896
H         -0.45459        1.89684        3.07955
H          0.43416        0.41866        2.64240
H         -2.31364        2.97758        1.75042
H         -3.22234        1.54785        1.18987
H         -2.65964        2.75570        0.01815
H          0.27885        2.47239       -1.38553
H          0.09909        4.10332       -0.66179
H         -1.76144       -0.97331       -3.43891
H         -2.96817       -1.55811       -2.21039
H         -3.23643        0.69015       -1.38422
H         -2.01847        1.29740       -2.59074
