40
319.log
C         -0.37032        4.12700       -0.56268
C          0.47911        2.93975       -0.99496
N          1.11539        2.34038        0.16389
P          1.63471        0.75929        0.22819
C          2.15417        0.72443        1.98205
Cl         3.46952        0.80712       -0.62108
Rh         0.31446       -0.91510       -0.59713
Cl         1.14622       -2.24686        1.20391
C         -3.61204        1.64164       -1.19641
C         -3.29438        0.15560       -1.31539
N         -3.01227       -0.47575       -0.04016
P         -1.50665       -0.46424        0.67997
C         -1.89369       -1.58440        2.07384
Cl        -1.42590        1.26143        1.72853
C          0.69976       -2.66157       -1.93122
C         -0.62153       -2.63178       -1.38525
H         -1.07312        3.82145        0.20832
H          0.25828        4.91878       -0.16038
H         -0.92201        4.52141       -1.41163
H         -0.14718        2.16791       -1.45046
H          1.21922        3.26106       -1.73993
H          1.70109        2.99710        0.66911
H          1.27579        0.83144        2.61467
H          2.62275       -0.23636        2.18638
H          2.86062        1.53183        2.17390
H          1.47704       -1.40730       -1.46548
H         -0.16192       -0.07659       -1.76716
H         -4.47851        1.79856       -0.55646
H         -2.76405        2.17045       -0.76859
H         -3.82532        2.05766       -2.17742
H         -4.13715       -0.37326       -1.77342
H         -2.41261        0.01557       -1.94541
H         -3.78423       -0.38720        0.61324
H         -2.12250       -2.56729        1.66806
H         -1.01803       -1.66968        2.71424
H         -2.73972       -1.20195        2.64450
H          0.81412       -2.49499       -2.99853
H          1.38833       -3.39852       -1.52763
H         -0.84981       -3.36180       -0.61357
H         -1.44804       -2.44987       -2.06714
