44
321.log
C          4.12360       -1.13309       -0.27298
C          3.44368        0.16321       -0.69107
N          3.24674        0.19244       -2.09716
P          1.82033        0.29429        0.32996
C          2.42218        0.58953        2.02291
N          1.48436        1.95572       -0.15139
O          1.28656        2.11319       -1.34790
O          1.42282        2.84059        0.68370
Rh         0.08425       -1.09164       -0.14080
Cl        -0.23556       -1.22398        2.21468
C         -1.73406        1.75764        2.04432
C         -2.07277        1.97263        0.57807
N         -1.49104        3.14652       -0.03208
P         -1.54289        0.51515       -0.50831
C         -1.63781        1.25612       -2.16768
N         -3.13397       -0.31699       -0.53457
O         -3.78355       -0.32204        0.48667
O         -3.44978       -0.85395       -1.57459
C         -0.06287       -3.34104       -0.15449
C         -1.30188       -2.68324       -0.38627
H          4.35274       -1.13165        0.78985
H          3.47719       -1.98173       -0.49632
H          5.04827       -1.25010       -0.83310
H          4.05976        1.02583       -0.40177
H          2.80651        1.04996       -2.41535
H          2.68935       -0.59642       -2.41044
H          3.30371        1.23128        2.01327
H          2.64506       -0.37355        2.47763
H          1.62826        1.05419        2.60638
H          1.05146       -2.26558        0.02596
H          0.35896       -1.05680       -1.63672
H         -2.14044        0.80903        2.38881
H         -0.65399        1.74348        2.18486
H         -2.15322        2.56131        2.64819
H         -3.16352        2.02128        0.45811
H         -0.58228        3.36503        0.36468
H         -2.07929        3.96154        0.08403
H         -2.49334        1.92569       -2.23528
H         -0.72212        1.81712       -2.34061
H         -1.71947        0.45161       -2.89690
H          0.39558       -3.87337       -0.98292
H          0.07869       -3.81507        0.81221
H         -2.02758       -2.69788        0.42295
H         -1.74019       -2.74243       -1.37929
