46
326.log
C          3.06195        2.75696       -0.41294
C          1.99851        1.79546       -0.85074
O          1.30466        1.95210       -1.81609
P          1.76961        0.19293        0.12940
Cl         2.03798        0.77995        2.00006
C          3.46176       -0.53504       -0.21014
C          3.66198       -1.78933        0.63092
C          3.59417       -0.82852       -1.69821
Rh        -0.06078       -1.02533       -0.42593
Cl        -0.32674       -1.70092        1.86688
C         -3.62418       -0.81920        1.36965
C         -3.39641       -0.12639        0.06865
O         -4.21434       -0.03799       -0.80897
P         -1.68205        0.60307       -0.25489
Cl        -2.07398        1.54278       -1.92575
C         -1.72976        2.04135        0.95743
C         -0.64382        3.04899        0.59843
C         -1.57842        1.58970        2.40671
C         -0.33218       -3.16604       -1.02733
C         -1.54456       -2.41258       -1.03365
H          2.79489        3.76454       -0.72509
H          3.21720        2.71928        0.66182
H          3.99249        2.48718       -0.91241
H          4.19806        0.21993        0.09347
H          4.64072       -2.22298        0.43350
H          3.59470       -1.56279        1.69350
H          2.90389       -2.53598        0.39483
H          3.47685        0.07626       -2.29217
H          2.82757       -1.53599       -2.01304
H          4.57028       -1.26051       -1.91177
H          0.83151       -2.25535       -0.60354
H          0.15733       -0.63761       -1.86996
H         -4.32665       -1.64042        1.23099
H         -2.68564       -1.17425        1.79575
H         -4.08038       -0.11434        2.06400
H         -2.71120        2.51057        0.80032
H         -0.66042        3.29656       -0.46137
H         -0.78597        3.96479        1.17027
H          0.33685        2.64306        0.84514
H         -2.51248        1.21783        2.81534
H         -0.83497        0.80023        2.49228
H         -1.25599        2.42894        3.02053
H          0.07769       -3.47885       -1.98375
H         -0.21170       -3.90211       -0.23696
H         -2.26238       -2.63829       -0.25138
H         -2.00098       -2.18537       -1.99332
