42
329.log
C          1.35734        3.37810       -0.83047
C          1.04785        2.74688        0.51910
O          1.94489        1.69955        0.84094
P          1.93919        0.24853        0.10780
C          2.96297       -0.56373        1.37971
N          3.12528        0.37320       -1.09311
Rh         0.05490       -0.79242       -0.66649
Cl         0.31329       -2.39104        1.09703
C         -2.44944        2.83368       -1.26044
C         -2.99654        1.66615       -0.45401
O         -2.20416        1.44812        0.70367
P         -1.37669        0.05875        0.87106
C         -2.75519       -1.06381        1.40039
N         -0.61465        0.50175        2.28789
C         -0.14486       -2.45467       -2.12668
C         -1.39345       -2.02730       -1.56659
H          1.19017        2.64909       -1.62140
H          2.39341        3.70868       -0.86715
H          0.70843        4.23386       -0.99611
H          0.02277        2.36568        0.53253
H          1.16464        3.48081        1.32250
H          2.40028       -0.68873        2.29976
H          3.25680       -1.54120        1.00678
H          3.83949        0.05494        1.56275
H          3.88645        0.99274       -0.83881
H          2.77643        0.59010       -2.01658
H          1.01046       -1.55472       -1.59827
H         -0.17346        0.26473       -1.73281
H         -1.46541        2.58020       -1.64481
H         -3.11334        3.05164       -2.09256
H         -2.36398        3.71416       -0.62918
H         -4.01535        1.88166       -0.11264
H         -3.01623        0.76407       -1.07667
H         -3.27580       -0.58930        2.23308
H         -2.33774       -2.01700        1.71220
H         -3.45419       -1.22518        0.58287
H          0.01190       -0.23557        2.58961
H         -1.26523        0.74904        3.02676
H          0.02603       -2.27156       -3.18385
H          0.25160       -3.40660       -1.78447
H         -1.86416       -2.70538       -0.86027
H         -2.10031       -1.54676       -2.23980
