36
345.log
C         -1.95180       -2.27274       -1.05585
P         -1.66230       -0.70615       -0.14589
C         -2.47925       -0.99622        1.51066
O         -2.52138        0.20567        2.20889
N         -3.15043        0.16952       -0.81943
O         -4.15188       -0.49705       -0.94543
O         -3.05688        1.34576       -1.05508
Rh         0.03075        0.84110       -0.33571
Cl         0.62488        0.54617        2.04530
C          2.51831       -1.20425       -2.19991
P          1.68483       -0.66991       -0.65732
C          1.23213       -2.30199        0.12180
O          0.11333       -2.15720        0.94797
N          3.23714       -0.32032        0.22236
O          3.78573        0.68329       -0.16562
O          3.64275       -1.08421        1.05957
C          0.07222        3.06991       -0.10189
C          1.32671        2.53095       -0.46820
H         -1.55532       -3.10297       -0.47951
H         -3.02443       -2.40123       -1.19687
H         -1.45806       -2.22503       -2.02549
H         -3.51299       -1.31239        1.32630
H         -1.94571       -1.78775        2.04989
H         -1.60855        0.45824        2.44517
H         -1.03868        1.84989        0.02033
H         -0.27862        0.97979       -1.80413
H          3.07310       -0.36178       -2.61242
H          3.19388       -2.03929       -2.01024
H          1.75252       -1.50123       -2.91428
H          0.96412       -3.00332       -0.67560
H          2.09465       -2.69147        0.68329
H          0.33890       -1.47550        1.62968
H         -0.49275        3.62973       -0.83922
H         -0.06188        3.41550        0.91910
H          2.11228        2.49971        0.28178
H          1.69291        2.70699       -1.47531
