48
35.log
C          3.25739        2.99970        0.08286
C          2.73765        1.57885       -0.08159
O          3.22197        0.79805        1.01204
C          3.69563       -0.41368        0.73436
O          3.86669       -0.87194       -0.36127
P          0.86922        1.34338       -0.10175
C          0.45463        2.01571        1.54848
C          0.39057        2.70530       -1.23871
Rh         0.25680       -0.78685       -0.67315
Cl         1.33603       -1.54670        1.34624
C         -4.49275       -0.00738        0.49125
C         -3.10240        0.20347       -0.08741
O         -2.58641        1.48013        0.33662
C         -2.96616        2.54405       -0.34474
O         -3.68391        2.57403       -1.29902
P         -1.74263       -0.97254        0.44401
C         -1.79156       -0.76776        2.26367
C         -2.62492       -2.57713        0.29960
C          1.37907       -2.35786       -1.81832
C          0.13498       -2.81837       -1.32092
H          2.94745        3.61934       -0.75321
H          4.34546        2.97304        0.10848
H          2.91304        3.43929        1.01456
H          3.13080        1.15010       -1.01709
H          4.01708       -0.89036        1.67062
H          0.84888        1.32572        2.29404
H          0.88968        3.00401        1.68634
H         -0.62709        2.07469        1.64021
H          0.57156        3.68086       -0.79229
H         -0.66347        2.60963       -1.48656
H          0.96256        2.60256       -2.15983
H          1.56267       -0.77964       -1.44775
H         -0.44298       -0.30615       -1.92752
H         -5.13592        0.81484        0.18056
H         -4.92056       -0.93081        0.11349
H         -4.46445       -0.03349        1.57780
H         -3.15622        0.20333       -1.18435
H         -2.50836        3.44044        0.11361
H         -0.91089       -1.26949        2.66375
H         -2.69097       -1.21732        2.68062
H         -1.74225        0.28615        2.52494
H         -1.96256       -3.35827        0.66770
H         -3.53539       -2.57511        0.89566
H         -2.86185       -2.77773       -0.74343
H          1.48771       -2.21296       -2.88869
H          2.28964       -2.67502       -1.31938
H          0.16222       -3.50371       -0.47877
H         -0.65266       -3.02628       -2.03997
