44
355.log
C          3.59864        0.82036       -1.00188
P          2.06339        0.51608       -0.05047
C          2.65354       -0.18395        1.55987
N          2.98936       -1.56980        1.24371
O          3.16602       -2.34994        2.13313
O          3.15275       -1.78714        0.05905
C          1.88152        2.30287        0.55267
N          1.18258        2.95941       -0.51546
O          1.82734        3.57092       -1.33273
O         -0.02312        2.80078       -0.56475
Rh         0.33224       -0.49004       -1.10398
Cl         0.15306       -1.99553        0.76315
C         -2.67120        1.42645       -1.26667
P         -1.60503        0.39452       -0.19932
C         -1.77607        1.40924        1.37879
N         -1.06267        0.73928        2.43903
O          0.11357        1.01579        2.58101
O         -1.66334       -0.06119        3.10878
C         -2.79800       -0.94696        0.39620
N         -4.15439       -0.49880        0.18156
O         -4.59911        0.32613        0.95289
O         -4.73983       -0.92557       -0.78509
C          0.33100       -2.17089       -2.60608
C         -0.96804       -1.70176       -2.35745
H          3.38989        1.59924       -1.73548
H          3.89756       -0.08320       -1.52535
H          4.40429        1.14814       -0.34487
H          3.55392        0.32367        1.92077
H          1.88464       -0.14309        2.33725
H          2.86388        2.75648        0.69170
H          1.28524        2.29919        1.46503
H          1.49756       -1.20903       -1.72719
H          0.40424        0.52210       -2.22815
H         -3.02678        0.82332       -2.10128
H         -3.51723        1.85424       -0.73235
H         -2.04886        2.22784       -1.65573
H         -2.84260        1.45556        1.62331
H         -1.35149        2.39339        1.18566
H         -2.61016       -1.11649        1.46176
H         -2.63402       -1.87313       -0.15114
H          0.80620       -1.93941       -3.55301
H          0.64136       -3.10790       -2.15545
H         -1.62272       -2.35095       -1.78765
H         -1.46955       -1.12431       -3.12807
