40
359.log
C          0.76471        2.43802        1.88244
C          1.15564        2.51080        0.42393
Cl        -0.24015        2.93791       -0.58436
P          1.86338        0.94406       -0.29622
C          2.52928        1.62554       -1.85814
N          3.27214        0.98144        0.63734
Rh         0.80598       -1.09418       -0.37053
Cl         1.00820       -0.92632        2.02303
C         -2.36557       -0.28842        2.03321
C         -2.31955        0.44805        0.71257
Cl        -3.99331        0.75589        0.15403
P         -1.41238       -0.54110       -0.58143
C         -1.84019        0.34497       -2.13921
N         -2.44672       -1.86396       -0.57227
C          1.75552       -3.11592       -0.14413
C          0.32883       -3.14975       -0.20646
H          1.66616        2.35343        2.48592
H          0.14414        1.56657        2.07840
H          0.22713        3.33691        2.18155
H          1.90378        3.29578        0.26281
H          3.18372        2.47001       -1.64594
H          1.71024        1.93255       -2.50456
H          3.08959        0.83983       -2.36362
H          4.00304        0.41242        0.21722
H          3.05792        0.57721        1.55069
H          2.23159       -1.66722       -0.35815
H          0.83053       -1.17219       -1.88350
H         -2.86937        0.30685        2.79272
H         -1.34908       -0.49696        2.36529
H         -2.88699       -1.23656        1.91905
H         -1.86254        1.43379        0.81311
H         -2.91690        0.49120       -2.20981
H         -1.33411        1.30207       -2.20264
H         -1.50046       -0.28391       -2.96217
H         -3.41504       -1.60376       -0.74706
H         -2.15637       -2.61061       -1.18920
H          2.30973       -3.55060       -0.97141
H          2.21867       -3.28161        0.82473
H         -0.20919       -3.35674        0.71406
H         -0.11064       -3.61363       -1.08554
