46
372.log
C          5.87093        0.04628       -1.23173
C          5.01893        0.81862       -0.23353
C          3.54344        0.45291       -0.36083
C          2.67326        1.15463        0.62961
O          3.04417        1.80651        1.56416
P          0.81854        1.04500        0.28791
C          0.18117        1.82754        1.80235
F          0.79182        2.41416       -0.63792
Rh        -0.04605       -0.90030       -0.52690
Cl         1.18911       -1.32707        1.50860
C         -2.59293        2.56375       -2.04485
C         -3.93782        2.15060       -1.46182
C         -3.86590        0.74278       -0.86744
C         -3.07168        0.70798        0.40001
O         -3.04017        1.57471        1.23598
P         -1.99269       -0.80129        0.61080
C         -2.13454       -1.06061        2.41057
F         -3.11539       -1.88906        0.13385
C          0.92909       -2.60586       -1.60790
C         -0.35407       -2.91719       -1.04637
H          5.78471       -1.02502       -1.06185
H          5.55576        0.25959       -2.25124
H          6.91686        0.32447       -1.13208
H          5.13551        1.89155       -0.39713
H          5.34891        0.60265        0.78386
H          3.15841        0.68640       -1.36098
H          3.40902       -0.62147       -0.19732
H         -0.85852        2.11905        1.65955
H          0.79602        2.70771        1.99295
H          0.26972        1.13188        2.63239
H          1.20920       -1.16430       -1.38400
H         -0.72513       -0.40318       -1.78440
H         -1.81821        2.53960       -1.28099
H         -2.64557        3.57172       -2.44766
H         -2.29845        1.88800       -2.84470
H         -4.70025        2.17193       -2.24249
H         -4.23196        2.84987       -0.67731
H         -3.42384        0.03827       -1.57733
H         -4.86989        0.38505       -0.61824
H         -3.13393       -1.43221        2.63167
H         -1.97354       -0.10594        2.90786
H         -1.38220       -1.77387        2.74178
H          1.01294       -2.59724       -2.69099
H          1.79924       -3.02957       -1.11208
H         -0.36886       -3.55713       -0.16746
H         -1.17562       -3.10410       -1.73120
