48
381.log
C         -2.54070        3.32774        0.81861
O         -1.16308        3.00524        0.81769
P         -0.55359        1.87141       -0.18572
C         -0.34099        2.83554       -1.74041
C          1.14558        2.00698        0.52886
C          2.26980        1.70929       -0.44991
N          3.53013        1.44318        0.26459
O          3.46972        0.77837        1.27481
O          4.53864        1.90723       -0.20080
Rh        -1.62240       -0.13001       -0.48191
Cl         0.31164       -0.56163       -1.81240
C         -0.72038        0.34235        3.20015
O         -0.05753       -0.68910        2.49084
P         -0.75465       -1.39510        1.20513
C         -1.94863       -2.54575        2.01297
C          0.61359       -2.59688        0.90441
C          1.97314       -1.94679        0.70932
N          2.50343       -2.11578       -0.66584
O          2.21786       -3.12386       -1.25833
O          3.26318       -1.26152       -1.05029
C         -2.89064       -0.82270       -2.19864
C         -2.58287       -1.85207       -1.25547
H         -2.77329        4.03761        0.02213
H         -2.75922        3.78457        1.78392
H         -3.15392        2.42964        0.68999
H         -1.32420        3.08733       -2.13778
H          0.20867        3.75197       -1.53004
H          0.18750        2.23268       -2.47331
H          1.21798        3.02804        0.91501
H          1.21441        1.31769        1.37431
H          2.46087        2.52787       -1.14416
H          2.03625        0.80342       -1.03206
H         -2.32077        0.51612       -1.69183
H         -2.83153        0.19751        0.37566
H         -1.15972        1.07113        2.51250
H         -1.50730       -0.06853        3.83602
H          0.03058        0.82940        3.82213
H         -2.17913       -3.36565        1.33844
H         -1.50725       -2.93401        2.92956
H         -2.86980       -2.01522        2.24509
H          0.36465       -3.17828        0.01180
H          0.62768       -3.27648        1.75841
H          2.72212       -2.40984        1.35895
H          1.96833       -0.88058        0.93780
H         -3.92404       -0.49721       -2.27319
H         -2.37478       -0.85083       -3.15431
H         -1.86911       -2.60954       -1.56877
H         -3.40387       -2.24426       -0.66221
