50
382.log
C         -4.32292       -1.29293       -1.31632
C         -3.41891       -0.11857       -0.95925
C         -2.61904       -0.34234        0.31563
O         -3.09545       -0.87658        1.30862
P         -1.34394        1.01322        0.60917
C         -2.37839        2.53105        0.63504
N         -1.16524        0.75983        2.24067
C         -0.20725        1.45968        3.07288
Rh         0.37498        1.09299       -0.88111
Cl         2.08156        0.91302        0.82181
C          4.55227       -1.16870        0.73427
C          3.20882       -1.53378        1.35650
C          2.06256       -0.88430        0.62365
O          0.75816       -1.34109        1.17435
P          0.45350       -1.18220       -0.39999
C          1.06169       -2.70779       -1.26274
N         -1.30196       -1.71814       -0.36712
C         -1.59570       -2.93543        0.35598
C          1.89390        1.85773       -2.30857
C          1.90033        0.47593       -2.38131
H         -4.88736       -1.59084       -0.43602
H         -5.02002       -1.00825       -2.10113
H         -3.75435       -2.15354       -1.66156
H         -4.04928        0.75117       -0.75161
H         -2.74733        0.15000       -1.77828
H         -2.62311        2.83301       -0.38017
H         -1.80907        3.32883        1.11111
H         -3.27791        2.33059        1.21645
H         -1.29825       -0.22005        2.48158
H          0.70298        0.88119        3.25072
H         -0.66822        1.68010        4.03910
H          0.06562        2.40180        2.59533
H          0.23223        2.60580       -0.83211
H         -0.66117        1.13466       -1.96053
H          4.71649       -0.09480        0.78460
H          4.58477       -1.47375       -0.30974
H          5.35972       -1.66679        1.26462
H          3.05520       -2.61470        1.30103
H          3.19837       -1.25116        2.41516
H          1.09591       -3.52562       -0.54482
H          2.06044       -2.53476       -1.65449
H          0.39794       -2.97471       -2.08276
H         -1.64139       -1.75351       -1.32184
H         -2.47849       -2.75213        0.98540
H         -0.76553       -3.17164        1.02307
H         -1.79058       -3.78537       -0.29868
H          1.43451        2.43809       -3.10002
H          2.67446        2.37496       -1.75910
H          2.69436       -0.08460       -1.89680
H          1.43971       -0.01889       -3.23021
