48
385.log
C         -2.67958        2.85041        0.87147
C         -1.66595        1.99270        0.12733
P         -1.54336        0.25606        0.73745
C         -1.69257        0.37271        2.56388
C         -3.29348       -0.26195        0.39007
O         -4.10171       -0.59614        1.21468
O         -3.50248       -0.19010       -0.90949
C         -4.78254       -0.59066       -1.38874
Rh        -0.00365       -1.09031       -0.23589
Cl         0.24458        0.53252       -1.98303
C          3.06020       -1.95343        2.34712
C          3.35853       -0.90034        1.28867
P          1.82302       -0.02771        0.73533
C          1.64049        1.15660        2.13124
C          2.60652        1.09383       -0.52156
O          3.46420        0.73045       -1.27839
O          2.11605        2.35534       -0.39512
C          2.43182        3.29757       -1.41539
C          0.53224       -2.64635       -1.77134
C          1.69538       -2.23035       -1.15754
H         -3.65710        2.37070        0.88835
H         -2.78043        3.81237        0.37253
H         -2.37146        3.03209        1.89862
H         -1.93576        1.89397       -0.92808
H         -0.66777        2.43311        0.15100
H         -1.03939        1.13802        2.96979
H         -1.42206       -0.59383        2.98698
H         -2.72944        0.58817        2.81673
H         -5.00934       -1.60274       -1.04907
H         -4.72645       -0.55049       -2.47305
H         -5.55364        0.08854       -1.01850
H         -1.22585       -1.68953       -0.87244
H         -0.16366       -2.12853        0.85976
H          2.29543       -2.64315        1.99310
H          3.95747       -2.52111        2.58546
H          2.69665       -1.49171        3.26270
H          4.05427       -0.14930        1.67533
H          3.81751       -1.35357        0.40655
H          0.85623        1.88348        1.89747
H          2.58013        1.68271        2.30089
H          1.36520        0.59883        3.02500
H          1.76577        3.12544       -2.26300
H          3.46728        3.17352       -1.73952
H          2.27337        4.28535       -0.98986
H          0.10396       -3.61169       -1.52179
H          0.26515       -2.25385       -2.74711
H          2.35014       -1.52731       -1.66345
H          2.17039       -2.88451       -0.43410
