50
388.log
C          2.71209        0.79126       -2.40370
C          2.34587        1.54879       -1.15647
O          1.85508        2.64877       -1.18728
C          2.65836        0.88114        0.15737
C          4.05646        0.41830        0.32251
O          4.62962        0.35539        1.37937
P          1.54363       -0.63531        0.46880
C          1.69060       -0.68528        2.28576
C          2.64541       -2.06598        0.09811
Rh        -0.44592       -0.87513       -0.65404
Cl        -0.66893       -2.86255        0.68940
C         -0.59536        3.81432        0.25973
C         -0.80378        2.46423        0.84514
O          0.07251        1.80433        1.35490
C         -2.20210        1.88104        0.77899
C         -2.98091        2.16160       -0.45763
O         -2.52079        2.31312       -1.55499
P         -1.90875        0.00847        0.85151
C         -3.64685       -0.57503        0.71014
C         -1.74142       -0.23243        2.66097
C         -0.85888       -2.03085       -2.52609
C         -2.03071       -1.49221       -1.91925
H          2.47790       -0.26494       -2.29600
H          3.77995        0.90117       -2.58995
H          2.17231        1.20801       -3.25030
H          2.38338        1.55926        0.97198
H          4.56121        0.09607       -0.60791
H          2.74746       -0.70019        2.55545
H          1.20202       -1.59431        2.63371
H          1.21456        0.18702        2.72150
H          3.53503       -2.06020        0.72518
H          2.93167       -2.10323       -0.95187
H          2.05443       -2.95422        0.32602
H          0.40157       -1.58705       -1.70650
H         -0.31681        0.41000       -1.43042
H          0.31872        4.26093        0.64017
H         -0.46788        3.66479       -0.81422
H         -1.45196        4.46422        0.41680
H         -2.76564        2.17016        1.67179
H         -4.07963        2.16884       -0.29932
H         -4.28435       -0.06666        1.43390
H         -4.03420       -0.41987       -0.29393
H         -3.64325       -1.64315        0.92635
H         -1.54236       -1.29133        2.82040
H         -0.92021        0.35131        3.06250
H         -2.67186        0.04132        3.15793
H         -0.53739       -1.61153       -3.47480
H         -0.69989       -3.10248       -2.44215
H         -2.69483       -2.20027       -1.43222
H         -2.53907       -0.68310       -2.43641
