48
395.log
C         -5.81999        1.40655        0.39906
C         -4.86726        0.98085       -0.70944
C         -3.83711       -0.02403       -0.19618
C         -2.92154       -0.52724       -1.26890
O         -3.16871       -0.61047       -2.44151
P         -1.20942       -0.98424       -0.66432
C         -0.69401       -2.21873       -1.90121
C         -1.77074       -2.03198        0.65093
N         -2.21257       -2.71399        1.45801
Rh         0.03919        0.84573       -0.11582
Cl        -0.67692        0.50320        2.15427
C          5.42689        1.68070       -1.24673
C          4.11829        0.90311       -1.21935
C          4.32275       -0.52515       -0.70356
C          2.98710       -1.17853       -0.53887
O          2.59388       -2.12000       -1.17607
P          1.77194       -0.38833        0.65981
C          2.78101        0.14517        2.09400
C          1.25353       -1.95738        1.30151
N          0.95347       -2.98983        1.69536
C         -0.44843        3.01595        0.06958
C          0.89635        2.70228        0.43438
H         -6.53166        2.13913        0.02685
H         -5.26972        1.84993        1.22611
H         -6.37366        0.55049        0.77759
H         -5.42549        0.52946       -1.53127
H         -4.34627        1.85579       -1.10553
H         -3.23931        0.39790        0.62031
H         -4.35006       -0.90301        0.21101
H         -0.70305       -1.72177       -2.87267
H         -1.38997       -3.05826       -1.90838
H          0.31729       -2.56363       -1.67962
H         -1.14969        1.73866       -0.48523
H          0.55349        0.98583       -1.54102
H          5.85184        1.75891       -0.24817
H          6.15119        1.18543       -1.88889
H          5.26114        2.68460       -1.62923
H          3.69049        0.86128       -2.22257
H          3.39620        1.41470       -0.57487
H          4.83017       -0.49319        0.26391
H          4.92800       -1.10616       -1.40235
H          3.44685       -0.66043        2.40599
H          2.08493        0.37339        2.90267
H          3.35197        1.04094        1.85225
H         -0.60618        3.61600       -0.82167
H         -1.14473        3.23124        0.87550
H          1.13733        2.73318        1.49367
H          1.68652        3.07710       -0.21163
