44
399.log
C          3.19115        2.37604        0.49598
N          2.93032        1.04040        0.02643
N          3.19813        0.82715       -1.25553
O          3.68718        1.71101       -1.91608
O          2.93061       -0.29242       -1.64811
P          1.89346       -0.27549        0.62174
C          1.88415        0.28521        2.37466
C          3.15088       -1.59465        0.80433
Rh        -0.04728       -0.71588       -0.50034
Cl         0.06328       -2.13624        1.41537
C         -3.04503        2.21073       -1.27939
N         -2.85671        1.28231       -0.19480
N         -3.72882        0.28900       -0.04531
O         -4.79092        0.31768       -0.61384
O         -3.35396       -0.57908        0.71825
P         -1.34008        0.83952        0.55332
C         -1.76932        0.85616        2.33815
C         -0.63317        2.54072        0.45416
C         -0.55886       -2.43248       -1.85583
C         -1.70236       -1.73733       -1.40928
H          2.98426        2.44271        1.55823
H          2.58862        3.10587       -0.05086
H          4.24326        2.61068        0.31878
H          2.91145        0.39631        2.72066
H          1.39116       -0.48960        2.95555
H          1.34132        1.21731        2.51030
H          3.24186       -2.16776       -0.11438
H          2.82068       -2.24884        1.60772
H          4.11053       -1.14362        1.05678
H          0.83185       -1.67244       -1.27095
H          0.05717        0.23534       -1.67550
H         -3.07382        3.23538       -0.91104
H         -4.00059        1.97724       -1.75193
H         -2.24496        2.10353       -2.01374
H         -0.95344        1.31459        2.89217
H         -1.90979       -0.16579        2.68191
H         -2.68392        1.42547        2.49759
H         -0.41937        2.80923       -0.57709
H         -1.31174        3.26786        0.89820
H          0.30562        2.54979        1.00254
H         -0.25900       -2.33832       -2.89430
H         -0.33775       -3.39696       -1.40879
H         -2.31331       -2.21059       -0.64656
H         -2.25726       -1.14293       -2.13119
