46
406.log
C          2.28607        2.99798       -1.22981
C          1.97289        2.47210        0.16483
P          1.76011        0.63355        0.18950
C          1.36749        0.39861        1.98023
O          0.36751        0.88515        2.46210
C          3.53846        0.13361        0.11284
C          3.81625       -1.36209        0.13236
Rh         0.11199       -0.58783       -0.82648
Cl         0.72515       -1.82329        1.19223
C         -2.67918       -1.79308        1.83017
C         -2.34505       -0.30775        1.85936
P         -1.67412        0.38342        0.27315
C         -3.23077        0.15099       -0.69585
O         -3.94568        1.03890       -1.06859
C         -1.82249        2.19220        0.58557
C         -1.56354        3.00713       -0.67594
C          0.27194       -2.42954       -2.07108
C         -1.06768       -2.14162       -1.65322
H          1.59147        2.57727       -1.95604
H          3.29547        2.72930       -1.53280
H          2.20126        4.08237       -1.25660
H          2.76390        2.74070        0.87312
H          1.03486        2.89665        0.52970
H          2.15815       -0.04906        2.60916
H          3.93816        0.56633       -0.80996
H          4.03244        0.62205        0.96133
H          3.33919       -1.85362       -0.71427
H          4.88856       -1.54037        0.06879
H          3.44305       -1.82053        1.04434
H          1.20302       -1.30189       -1.63489
H         -0.14635        0.28973       -2.02805
H         -1.79884       -2.37824        1.57518
H         -3.01139       -2.10619        2.81861
H         -3.47315       -2.01693        1.12058
H         -1.58084       -0.11307        2.61478
H         -3.23358        0.28230        2.10700
H         -3.48513       -0.90654       -0.90919
H         -2.83845        2.37499        0.94829
H         -1.11752        2.44425        1.38058
H         -0.64618        2.67994       -1.16175
H         -2.38300        2.87987       -1.37845
H         -1.47640        4.06507       -0.43533
H          0.49346       -2.35712       -3.13199
H          0.77804       -3.25772       -1.58064
H         -1.49716       -2.79178       -0.89555
H         -1.77118       -1.84780       -2.42682
