38
407.log
C          3.22567       -1.16093        1.44686
C          2.82452        0.29871        1.26717
P          1.63037        0.49725       -0.10605
C          1.57330        2.32947       -0.37071
O          2.26326        3.10093        0.21964
C          2.77286        0.30629       -1.55939
O          3.91603       -0.04367       -1.48840
Rh        -0.13920       -0.92956       -0.55578
Cl        -0.44413       -1.22371        1.86005
C         -2.46774        2.12454       -2.04321
C         -2.18862        2.22181       -0.54769
P         -1.70376        0.57887        0.12467
C         -0.86726        0.99187        1.74979
O          0.21222        1.56280        1.69345
C         -3.30407       -0.05184        0.75790
O         -4.35954        0.45619        0.50003
C         -0.18783       -3.10131       -1.01297
C         -1.48721       -2.49288       -0.97830
H          3.69204       -1.54552        0.54149
H          3.93805       -1.25103        2.26394
H          2.35713       -1.77385        1.68631
H          2.36064        0.70001        2.17021
H          3.68997        0.91695        1.00646
H          0.84456        2.64656       -1.14502
H          2.29249        0.53565       -2.53408
H          0.89561       -2.04751       -0.78477
H         -0.09710       -0.56960       -2.01829
H         -1.60671        1.70564       -2.56434
H         -2.68539        3.10680       -2.45641
H         -3.32314        1.47620       -2.22235
H         -3.08294        2.55053       -0.00789
H         -1.37120        2.91998       -0.33983
H         -1.47822        1.01179        2.66161
H         -3.22128       -0.93502        1.42146
H          0.17601       -3.44909       -1.97524
H          0.07116       -3.76547       -0.19168
H         -2.12898       -2.74760       -0.13880
H         -2.02492       -2.39860       -1.91721
