46
409.log
C          1.33099       -1.94605        2.45280
P          0.57281       -1.26457        0.92749
C         -0.62261       -2.58359        0.51377
C          1.90017       -1.66566       -0.30308
O          1.69871       -2.11000       -1.40213
O          3.08300       -1.39023        0.22261
C          4.23363       -1.51771       -0.60412
C          4.76385       -0.16570       -1.04218
O          5.87305       -0.00623       -1.46318
Rh        -0.06170        0.92740        0.94877
Cl         1.78124        1.53121       -0.46505
C         -1.46743        2.58707       -1.81696
P         -1.18121        0.95689       -1.03822
C         -0.51245        0.02377       -2.46208
C         -2.93397        0.37275       -1.02160
O         -3.89790        1.07725       -0.89282
O         -2.97707       -0.95647       -1.15336
C         -4.25095       -1.57479       -1.04115
C         -4.52441       -2.09163        0.35224
O         -3.76986       -2.04466        1.27511
C          0.46369        2.59354        2.34906
C         -0.43734        2.97668        1.30659
H          0.58341       -1.89247        3.24396
H          2.19450       -1.34538        2.73419
H          1.63509       -2.98214        2.30443
H         -1.46268       -2.50805        1.20288
H         -0.99185       -2.43418       -0.49873
H         -0.15118       -3.56294        0.59415
H          3.96758       -2.08633       -1.50654
H          4.99515       -2.06532       -0.04168
H          4.02576        0.64820       -0.94843
H          0.77928        1.09112        2.22372
H         -1.27745        0.55299        1.77159
H         -0.50571        3.08448       -1.93680
H         -2.11608        3.18340       -1.17725
H         -1.93810        2.45369       -2.79132
H         -0.28668       -1.00593       -2.19243
H         -1.21327        0.05267       -3.29642
H          0.42087        0.51199       -2.74356
H         -4.27770       -2.41059       -1.74714
H         -5.03458       -0.85030       -1.30216
H         -5.53416       -2.53935        0.43410
H          0.08141        2.56236        3.36541
H          1.48637        2.95520        2.27831
H         -0.03574        3.61820        0.52723
H         -1.46141        3.21083        1.58497
