48
410.log
C          2.38036        3.76365       -0.17569
O          2.03499        2.41928       -0.40702
C          2.38945        1.56909        0.65403
P          2.00460       -0.15398        0.08360
C          3.38730       -0.40463       -1.08661
C          2.66107       -1.05448        1.56381
N          2.61312       -2.46937        1.25171
Rh        -0.02346       -0.86197       -0.72013
Cl        -0.55485       -1.71844        1.48617
C         -3.82353       -0.38475        1.22222
O         -3.77458        0.93149        0.71434
C         -3.15888        1.04148       -0.53535
P         -1.27259        1.05923       -0.47039
C         -0.98563        2.30480       -1.78466
C         -1.05970        2.15397        1.03544
N         -0.97908        1.50769        2.31948
C         -0.55731       -2.86222       -1.52501
C         -1.65003       -1.94020       -1.52374
H          1.88734        4.15404        0.72328
H          3.46500        3.87646       -0.05693
H          2.05112        4.32890       -1.04564
H          3.46770        1.64803        0.87563
H          1.83050        1.81285        1.57137
H          3.17196        0.13817       -2.00427
H          3.44914       -1.47002       -1.30214
H          4.32798       -0.05930       -0.66033
H          2.07735       -0.76635        2.45350
H          3.70345       -0.74936        1.71349
H          1.63532       -2.75778        1.26762
H          3.09065       -3.00929        1.96673
H          0.73978       -2.16373       -0.97689
H          0.34104       -0.37493       -2.10176
H         -2.82185       -0.80668        1.35040
H         -4.40715       -1.03505        0.55906
H         -4.31710       -0.32353        2.19064
H         -3.50428        0.25674       -1.22433
H         -3.46372        2.01790       -0.93041
H         -1.35866        1.91649       -2.73066
H         -1.48650        3.24220       -1.54560
H          0.08699        2.46222       -1.86665
H         -1.89824        2.85972        1.04192
H         -0.13634        2.71446        0.85682
H         -0.36887        0.69259        2.26999
H         -1.89390        1.16444        2.59403
H         -0.14262       -3.15887       -2.48405
H         -0.58526       -3.66845       -0.79704
H         -2.44057       -2.12314       -0.80129
H         -2.01244       -1.59007       -2.48749
