44
416.log
C         -0.54780       -3.36769        0.80927
P         -0.03125       -1.64014        0.54120
C          0.48516       -1.12629        2.21939
C          1.62035       -1.97148       -0.22577
O          1.95881       -3.03318       -0.68461
O          2.35869       -0.87291       -0.22491
C          3.63882       -0.97195       -0.88934
O          4.44836       -1.93420       -0.34408
Rh        -1.40553       -0.34109       -0.70011
Cl        -2.78536       -0.96625        1.15655
C         -1.22214        3.30826       -0.31835
P         -0.82697        1.64295        0.37297
C         -1.34032        1.88280        2.11972
C          0.98521        2.01526        0.54543
O          1.60114        2.04238        1.58401
O          1.48456        2.32863       -0.63828
C          2.81962        2.86098       -0.67346
O          3.76059        2.06622       -0.07708
C         -3.20800       -0.29969       -2.04036
C         -3.01625        0.97018       -1.53852
H          0.18085       -3.87066        1.44559
H         -0.59643       -3.87146       -0.15588
H         -1.53035       -3.37569        1.27713
H         -0.41022       -1.09050        2.83974
H          0.95877       -0.14669        2.19753
H          1.18195       -1.86372        2.61942
H          3.43013       -1.15121       -1.95581
H          4.11258        0.00048       -0.74137
H          4.05852       -2.80594       -0.52101
H         -1.60306       -1.67041       -1.38035
H         -0.45456       -0.03834       -1.83971
H         -2.30206        3.44806       -0.31545
H         -0.76001        4.08104        0.29699
H         -0.84917        3.38162       -1.33831
H         -2.01172        2.73716        2.18683
H         -1.87367        0.99512        2.45820
H         -0.46227        2.04920        2.74323
H          2.77455        3.86380       -0.21354
H          3.06720        2.94217       -1.73466
H          3.52711        1.95612        0.86092
H         -2.94053       -0.52467       -3.06679
H         -3.95958       -0.94686       -1.59985
H         -3.63853        1.31430       -0.71746
H         -2.61140        1.74237       -2.18288
