40
420.log
C          1.11702        1.45747        2.25201
P          1.49281        0.83408        0.56745
C          2.00380        2.43740       -0.21820
Cl         2.59557        2.05371       -1.84214
C          3.20190        0.17059        0.85022
C          3.24076       -1.29930        1.18614
O          3.40375       -2.15095        0.35202
Rh         0.22336       -0.67326       -0.57711
Cl         0.58504       -1.73686        1.55352
C         -2.29266       -0.03263        1.86041
P         -1.87010       -0.09092        0.08176
C         -2.48343        1.56107       -0.47728
Cl        -1.41361        2.75663        0.25123
C         -3.29663       -1.11612       -0.57875
C         -4.58280       -0.72132        0.05523
O         -5.22552        0.25094       -0.24179
C          0.92783       -2.49267       -1.69350
C         -0.47146       -2.48030       -1.48663
H          1.96416        2.04215        2.61111
H          0.23194        2.08897        2.23164
H          0.95096        0.60607        2.90951
H          2.81272        2.92155        0.33308
H          1.15854        3.11654       -0.32102
H          3.67589        0.75680        1.64128
H          3.73034        0.30831       -0.09993
H          3.21223       -1.53492        2.26168
H          1.57967       -1.09029       -1.11498
H          0.04736        0.10992       -1.85727
H         -3.30277        0.34613        2.01306
H         -2.19439       -1.04113        2.26202
H         -1.57496        0.60257        2.37599
H         -2.39424        1.65393       -1.56105
H         -3.50544        1.77344       -0.15783
H         -3.06770       -2.16459       -0.39130
H         -3.31502       -0.91869       -1.65399
H         -4.91850       -1.39159        0.86924
H          1.30574       -2.34444       -2.69973
H          1.54307       -3.14103       -1.07715
H         -0.86760       -3.15867       -0.73489
H         -1.11452       -2.34601       -2.35214
