36
431.log
C          3.82995       -0.40531       -0.01590
N          3.09660        0.54238       -0.83552
P          1.53728        0.96648       -0.38943
C          1.74301        1.92696        1.18258
O          1.37233        2.16219       -1.45031
Rh        -0.00698       -0.70664       -0.39207
Cl         0.66741       -1.17354        1.85504
C         -3.52813        0.45599       -1.48356
N         -3.25675        0.51386       -0.05342
P         -1.61736        0.66532        0.38782
C         -1.89617        0.80062        2.19432
O         -1.38288        2.20612       -0.06134
C          0.10143       -2.89063       -0.77395
C         -1.19909       -2.44275       -0.36037
H          4.35159        0.06397        0.82349
H          3.12355       -1.12974        0.38986
H          4.56045       -0.93088       -0.63406
H          3.64249        1.35973       -1.09067
H          2.54813        2.64784        1.03854
H          1.98605        1.24037        1.98885
H          0.82169        2.45084        1.42265
H          0.44086        2.33257       -1.60555
H          1.04025       -1.69802       -0.91396
H         -0.40141       -0.40452       -1.82807
H         -3.13467       -0.44589       -1.96112
H         -4.60564        0.50450       -1.64216
H         -3.06167        1.31899       -1.95746
H         -3.65130       -0.30052        0.40695
H         -0.98577        1.16180        2.66637
H         -2.10792       -0.18480        2.59929
H         -2.72834        1.47657        2.39002
H         -2.14329        2.74844        0.18111
H          0.20580       -3.26275       -1.78948
H          0.68133       -3.45296       -0.04695
H         -1.51274       -2.71997        0.64351
H         -2.00061       -2.51302       -1.09264
