28
436.log
C         -1.90869       -1.89037       -1.43810
P         -1.56511       -0.60382       -0.17774
Cl        -2.23903       -1.35629        1.49704
N         -3.17005        0.34095       -0.49853
O         -4.12367       -0.29898       -0.86585
O         -3.17211        1.51595       -0.23547
Rh         0.02710        1.04996       -0.22387
Cl         0.88914        0.31418        1.91583
C          2.00274       -1.42759       -2.16314
P          1.73212       -0.36217       -0.68095
Cl         3.56427        0.00331       -0.14659
N          1.33977       -1.75017        0.41615
O          0.17628       -2.14578        0.34963
O          2.23832       -2.34773        0.94967
C          0.05485        3.20294        0.37509
C          1.28235        2.76354       -0.17921
H         -2.97871       -2.09721       -1.43122
H         -1.35474       -2.79408       -1.20547
H         -1.61709       -1.50432       -2.41337
H         -1.03473        1.97005        0.33925
H         -0.40223        1.40367       -1.63098
H          2.74223       -2.19979       -1.94586
H          1.06053       -1.87966       -2.46824
H          2.36621       -0.79397       -2.97037
H         -0.56466        3.88060       -0.20223
H          0.00398        3.35607        1.44927
H          2.12164        2.61870        0.49598
H          1.56231        3.12668       -1.16397
