42
442.log
C          3.26952        1.08027       -2.02115
C          2.50012        1.89663       -0.99386
C          1.49656        2.83317       -1.65418
P          1.56196        0.72707        0.10213
F          1.03527        1.83282        1.15509
C          2.92695        0.09614        1.18845
O          3.29409        0.63173        2.19208
O          3.48199       -0.98760        0.65129
Rh         0.18489       -0.92510       -0.58310
Cl         0.56456       -1.37419        1.76428
C         -1.91912        2.53386        0.80296
C         -2.01044        1.15888        1.46106
C         -3.31950        0.97564        2.21954
P         -1.80849       -0.14235        0.14937
F         -2.73070       -1.30147        0.78562
C         -3.08794        0.45255       -1.06062
O         -4.25925        0.20866       -1.01399
O         -2.50578        1.19510       -1.99353
C          0.70729       -3.02078       -1.17966
C         -0.69319       -2.80310       -0.98518
H          3.83364        1.73412       -2.68332
H          2.57235        0.49570       -2.62124
H          3.96381        0.39562       -1.53663
H          3.18676        2.46594       -0.35513
H          0.73447        2.25208       -2.17454
H          1.01030        3.46047       -0.90953
H          1.99513        3.47882       -2.37467
H          4.14627       -1.37086        1.25043
H          1.43934       -1.69551       -1.03038
H         -0.02065       -0.47754       -2.01667
H         -2.86333        2.79021        0.32455
H         -1.13294        2.55175        0.04824
H         -1.69574        3.29199        1.55016
H         -1.16488        1.02325        2.14433
H         -3.31230        0.04826        2.78667
H         -3.45215        1.80282        2.91437
H         -4.16686        0.95463        1.53575
H         -3.14635        1.51429       -2.65461
H          1.04996       -3.23858       -2.18715
H          1.23469       -3.57723       -0.40939
H         -1.14239       -3.21885       -0.08725
H         -1.33990       -2.84620       -1.85708
