40
444.log
C          2.37671        1.83928        1.85461
C          2.98721        0.88824        0.83200
N          3.27307       -0.45270        1.30736
P          1.89248        0.50304       -0.61724
C          3.17095        0.03691       -1.83523
F          1.65551        2.03312       -1.15917
Rh         0.09674       -0.89126       -0.47065
Cl         0.00443       -0.68561        1.92755
C         -4.16185        1.50573        0.18939
C         -3.25703        0.28265        0.01946
N         -3.22322       -0.61270        1.15495
P         -1.49355        0.71648       -0.39796
C         -1.15781        2.19576        0.62288
F         -1.83349        1.51101       -1.77843
C          0.02176       -3.11333       -0.24457
C         -1.26259       -2.50110       -0.38411
H          1.47282        1.39994        2.27176
H          3.08259        2.02055        2.66486
H          2.13491        2.79141        1.38606
H          3.91099        1.32135        0.42343
H          2.42823       -0.81773        1.74901
H          4.00014       -0.44496        2.01604
H          3.70595       -0.82491       -1.44454
H          2.68977       -0.22579       -2.77421
H          3.85462        0.86914       -1.99059
H          1.11658       -2.03951       -0.38406
H          0.07096       -0.98201       -1.97962
H         -4.04406        2.18647       -0.65083
H         -3.93677        2.03262        1.11510
H         -5.20303        1.18590        0.22574
H         -3.60642       -0.29613       -0.84952
H         -2.71367       -0.20625        1.93296
H         -4.15957       -0.84272        1.46941
H         -1.15531        1.91876        1.67364
H         -1.90259        2.96189        0.42135
H         -0.17294        2.57187        0.35616
H          0.37237       -3.75055       -1.05154
H          0.29601       -3.47600        0.74246
H         -1.89542       -2.44178        0.49578
H         -1.80985       -2.68658       -1.30432
