40
471.log
C         -4.66377       -0.04325        0.39231
C         -3.49830        0.66315       -0.29089
C         -3.47930        2.14459        0.07280
P         -1.84726       -0.09886        0.11900
N         -1.99384       -0.26428        1.78405
Br        -2.27759       -2.19788       -0.40798
Rh         0.06762        0.79838       -0.75290
Cl        -0.15411        2.32698        1.10167
C          1.45008       -0.05822        3.11032
C          2.42442       -0.13418        1.94219
C          3.18620        1.17438        1.78208
P          1.51303       -0.55532        0.37340
N          0.89382       -2.03449        0.84274
Br         3.32070       -1.11959       -0.82388
C          0.44265        2.54725       -2.11802
C          1.62888        1.95583       -1.58661
H         -4.78043       -1.06718        0.04363
H         -4.52477       -0.05798        1.47148
H         -5.58631        0.49181        0.17285
H         -3.59308        0.56654       -1.38321
H         -2.60471        2.64804       -0.33801
H         -4.36783        2.63658       -0.31948
H         -3.46669        2.27452        1.15379
H         -1.93955        0.65528        2.21628
H         -1.25586       -0.84330        2.17847
H         -0.76573        1.75639       -1.62261
H          0.11127       -0.17271       -1.91830
H          1.99536        0.15390        4.02831
H          0.73859        0.74915        2.94719
H          0.91249       -0.99665        3.24225
H          3.13579       -0.95707        2.10924
H          2.48573        1.99636        1.64480
H          3.86778        1.13924        0.93211
H          3.77265        1.37634        2.67664
H          1.53754       -2.67873        1.29151
H          0.32294       -2.51757        0.15717
H          0.24723        2.42708       -3.17951
H          0.15015        3.51902       -1.72866
H          2.17132        2.52388       -0.83490
H          2.27237        1.40961       -2.27230
