38
474.log
C         -1.94612       -1.61485       -1.58990
P         -1.38395       -0.47348       -0.28897
N         -1.70251       -1.39698        1.06865
C         -2.84725        0.69447       -0.12189
N         -3.98843       -0.06179        0.33750
O         -4.19526       -0.10337        1.52651
O         -4.64356       -0.64001       -0.50225
Rh         0.48477        0.80302       -0.66130
Cl        -0.06821        2.02771        1.33858
C          1.35392       -0.79756        2.46606
P          1.89112       -0.17897        0.82941
N          3.22370        0.69145        1.39168
C          2.87966       -1.65601        0.20854
N          1.92633       -2.47873       -0.49003
O          2.24927       -3.06226       -1.49034
O          0.80897       -2.50121        0.00012
C          0.71952        2.69430       -1.82714
C          1.92307        2.26777       -1.18346
H         -2.94561       -1.98354       -1.36475
H         -1.24594       -2.44584       -1.62799
H         -1.93609       -1.10329       -2.54991
H         -1.60114       -0.87279        1.93365
H         -1.12393       -2.22887        1.08732
H         -2.57758        1.45513        0.61613
H         -3.04952        1.13021       -1.10205
H         -0.39776        1.63766       -1.59829
H          0.89796       -0.04100       -1.84715
H          0.79704       -1.72524        2.37930
H          0.72594       -0.03549        2.92432
H          2.24865       -0.94381        3.07015
H          3.73057        1.15163        0.64119
H          2.90330        1.40908        2.03710
H          3.70267       -1.38263       -0.45406
H          3.26815       -2.19721        1.07417
H          0.68576        2.66253       -2.91175
H          0.20275        3.54884       -1.39929
H          2.24794        2.85976       -0.33091
H          2.73823        1.93322       -1.82105
