38
494.log
C          3.75318       -0.67505        0.86308
C          3.40651        0.26456       -0.26790
F          3.69476       -0.32565       -1.48896
P          1.60249        0.72094       -0.43029
C          1.75863        1.97591       -1.75412
C          1.48982        1.79184        0.98034
N          1.35751        2.47516        1.89090
Rh        -0.03335       -0.84386       -0.39119
Cl         0.67282       -1.08489        1.88760
C         -3.54088        0.41346       -1.73124
C         -3.39712        0.43752       -0.22487
F         -3.85053       -0.74722        0.32314
P         -1.62255        0.58723        0.34837
C         -1.88274        0.88044        2.12872
C         -1.41189        2.26525       -0.19803
N         -1.23216        3.32191       -0.60535
C         -0.02811       -3.07509       -0.59387
C         -1.29436       -2.53069       -0.21248
H          3.18313       -1.59853        0.77843
H          4.81531       -0.91179        0.83747
H          3.50788       -0.20604        1.81321
H          4.00505        1.18796       -0.22500
H          2.05210        1.45953       -2.66851
H          2.50541        2.72661       -1.49332
H          0.79471        2.45846       -1.91163
H          0.95337       -1.93711       -0.83793
H         -0.42074       -0.63390       -1.84784
H         -3.23894        1.37660       -2.13660
H         -2.90628       -0.36288       -2.15610
H         -4.57486        0.21541       -2.00658
H         -4.00485        1.23508        0.22810
H         -2.63416        1.65514        2.28548
H         -2.20288       -0.06117        2.57801
H         -0.93517        1.17578        2.58039
H          0.05325       -3.52613       -1.57877
H          0.53788       -3.59622        0.17376
H         -1.61221       -2.68350        0.81547
H         -2.10817       -2.59173       -0.92940
