40
498.log
C          3.35026        2.47059       -0.78975
C          1.90372        1.99364       -0.84078
P          1.61541        0.32665       -0.09869
C          2.87536       -0.56908       -1.12274
O          3.62742       -1.41122       -0.72142
C          2.52173        0.19885        1.51524
F          3.83107        0.56194        1.36886
Rh        -0.23015       -1.04024       -0.45212
Cl        -0.66139       -1.03118        1.95480
C         -2.53408        1.82830       -2.41648
C         -2.01609        2.16070       -1.02259
P         -1.71111        0.62294       -0.05315
C         -0.96852        1.27508        1.50863
O          0.16542        1.72236        1.48803
C         -3.41511        0.21506        0.54603
F         -4.00047        1.35528        1.03559
C         -0.42021       -3.24526       -0.62458
C         -1.66627       -2.55173       -0.76076
H          4.03405        1.71432       -1.17157
H          3.45708        3.37038       -1.39350
H          3.64437        2.70811        0.22819
H          1.25208        2.71070       -0.34107
H          1.56964        1.88414       -1.88037
H          2.82129       -0.31279       -2.20475
H          2.50386       -0.85429        1.82563
H          2.07382        0.83880        2.27874
H          0.74675       -2.22565       -0.45612
H         -0.07673       -0.87371       -1.94502
H         -1.86339        1.12138       -2.90420
H         -3.52489        1.38182       -2.36605
H         -2.59592        2.72812       -3.02435
H         -1.05543        2.67998       -1.08830
H         -2.71824        2.79474       -0.47307
H         -1.63665        1.43767        2.36802
H         -3.36742       -0.51215        1.36426
H         -4.04706       -0.16183       -0.26560
H         -0.01869       -3.74073       -1.50302
H         -0.25525       -3.79891        0.29613
H         -2.37268       -2.64014        0.06075
H         -2.13746       -2.55370       -1.73961
