42
502.log
C          2.47578       -1.07959        1.90101
P          1.90575       -0.10741        0.46418
C          2.27832        1.59990        1.05533
C          1.89966        2.65297        0.01077
O          2.18424        3.95767        0.43429
N          3.43297       -0.32502       -0.52864
O          4.45813        0.04242       -0.00772
O          3.32806       -0.84627       -1.60754
Rh         0.06581       -0.72829       -0.69561
Cl        -0.38774       -2.33169        1.04637
C         -1.19964        1.24554        2.02681
P         -1.56855        0.34404        0.47965
C         -2.83885        1.43645       -0.29880
C         -2.19812        2.61771       -1.03078
O         -3.15037        3.43368       -1.65630
N         -2.79397       -0.80039        1.16818
O         -3.45944       -1.38197        0.34237
O         -2.94290       -0.83820        2.36163
C         -0.23428       -2.29893       -2.28636
C         -1.42122       -1.60011       -1.97170
H          1.74831       -0.96438        2.70328
H          2.50066       -2.13462        1.62719
H          3.46108       -0.74043        2.22157
H          1.71875        1.76164        1.98169
H          3.34781        1.66294        1.28107
H          0.83534        2.54042       -0.25557
H          2.48985        2.50813       -0.89826
H          1.68915        4.15882        1.23658
H          1.02750       -1.64076       -1.43620
H          0.29888        0.35202       -1.73336
H         -0.65711        2.15677        1.78545
H         -2.12398        1.49069        2.55049
H         -0.58813        0.60788        2.66571
H         -3.39463        0.81911       -1.01441
H         -3.53770        1.80102        0.46174
H         -1.68600        3.27304       -0.32119
H         -1.45799        2.24076       -1.75281
H         -3.60686        2.92895       -2.33906
H          0.23739       -2.12664       -3.24827
H         -0.11793       -3.30734       -1.90067
H         -2.17991       -2.12110       -1.39542
H         -1.81724       -0.90919       -2.71134
