38
51.log
C         -0.77672       -1.29003        2.48419
P         -1.34515       -0.79527        0.81448
C         -3.16039       -0.77833        1.18865
Br        -4.15372       -0.63582       -0.46874
C         -1.29731       -2.43051       -0.08163
C         -0.00859       -3.01595        0.12197
N          1.02603       -3.44534        0.35549
Rh        -0.61717        1.13301       -0.15315
Cl         0.22895        1.84567        1.97722
C          2.74618        2.10389       -0.55819
P          1.58322        0.69525       -0.55693
C          2.39783       -0.42145        0.66565
Br         4.29026       -0.72422        0.34531
C          2.06062       -0.09615       -2.17162
C          1.17847       -1.19394       -2.42847
N          0.45074       -2.05786       -2.60625
C         -1.67747        3.09938       -0.42955
C         -0.34669        3.10180       -0.92351
H          0.27659       -1.56230        2.45618
H         -0.88860       -0.43448        3.15043
H         -1.35793       -2.13595        2.85417
H         -3.48779       -1.69341        1.68803
H         -3.41343        0.09031        1.79959
H         -2.06779       -3.10231        0.31173
H         -1.45421       -2.26257       -1.15224
H         -2.02177        1.63879        0.15514
H         -1.07192        0.65741       -1.51775
H          3.77132        1.75959       -0.69876
H          2.48222        2.79517       -1.35775
H          2.65904        2.61557        0.40083
H          1.92820       -1.40720        0.65504
H          2.30471        0.03630        1.65292
H          1.92832        0.65603       -2.95620
H          3.10177       -0.43436       -2.15557
H         -2.49566        3.12378       -1.14275
H         -1.87361        3.63582        0.49437
H          0.38479        3.66430       -0.35113
H         -0.20696        3.14948       -2.00056
