46
510.log
C          4.32020       -1.47843       -0.99152
C          4.12071       -0.34453        0.00754
N          3.35665        0.76439       -0.54794
P          1.70263        0.90094       -0.23004
C          1.40615        2.31806       -1.35283
C          1.84088        1.78330        1.40160
F          2.60835        2.90753        1.24410
Rh         0.31835       -0.92250       -0.15857
Cl        -0.18725       -0.47977        2.13979
C         -5.02815       -0.02697        0.85461
C         -4.39155       -0.34216       -0.49391
N         -3.00521       -0.78306       -0.38548
P         -1.64090        0.15034       -0.60878
C         -1.95729        0.85233       -2.27228
C         -1.89843        1.68975        0.43571
F         -2.99235        2.39623       -0.00484
C          0.74160       -3.06140        0.37310
C         -0.62224       -2.81535        0.03785
H          3.35704       -1.81300       -1.37497
H          4.92614       -1.13971       -1.82991
H          4.82346       -2.31782       -0.51892
H          3.59630       -0.70973        0.89685
H          5.09434        0.04321        0.32808
H          3.55834        0.88129       -1.53553
H          2.19411        3.05313       -1.19273
H          1.43456        1.95795       -2.38085
H          0.43565        2.77014       -1.16473
H          0.86563        2.08396        1.79111
H          2.33492        1.13481        2.13228
H          1.54985       -1.72110        0.27060
H          0.58544       -1.18828       -1.63068
H         -6.08031        0.21117        0.72053
H         -4.54179        0.82415        1.32228
H         -4.94890       -0.88316        1.52221
H         -4.95395       -1.14926       -0.97937
H         -4.43754        0.53565       -1.13763
H         -2.88711       -1.43853        0.37875
H         -1.07218        1.37893       -2.61985
H         -2.80503        1.53439       -2.26907
H         -2.15552        0.01673       -2.94067
H         -2.07964        1.39355        1.47348
H         -1.03926        2.36389        0.39185
H          1.34445       -3.64255       -0.31914
H          0.97081       -3.25041        1.41810
H         -1.32911       -2.85127        0.86156
H         -1.00464       -3.22934       -0.89073
