50
512.log
C          2.48245        1.87636        2.59242
N          1.49393        1.24778        1.73391
P          1.71454        0.83337        0.13276
C          2.03245        2.47736       -0.63388
C          3.48479        0.16268        0.01542
C          3.94884        0.06327       -1.42980
C          3.43606       -1.16575        0.69511
O          3.54784       -2.22780        0.14737
Rh         0.10762       -0.55034       -0.68613
Cl        -0.33191       -1.26457        1.57338
C         -1.53891        2.76764       -1.99908
N         -2.41311        1.75709       -1.42286
P         -1.71678        0.75027       -0.23558
C         -1.58313        1.95332        1.13932
C         -3.29299       -0.14744        0.20425
C         -4.41012        0.80768        0.62447
C         -3.11075       -1.18155        1.28784
O         -3.27004       -2.36069        1.11539
C          0.16752       -2.67654       -1.40549
C         -1.13203       -2.10758       -1.45765
H          1.96512        2.32861        3.43980
H          2.99651        2.66649        2.04717
H          3.22784        1.17611        2.98299
H          0.95519        0.51560        2.20187
H          2.11099        2.35460       -1.71098
H          2.94835        2.92613       -0.25328
H          1.18803        3.12772       -0.41569
H          4.11261        0.84259        0.60357
H          4.79064       -0.62340       -1.50091
H          4.25228        1.03357       -1.81378
H          3.14336       -0.32767       -2.05161
H          3.25118       -1.10446        1.78767
H          1.23918       -1.54720       -0.91244
H          0.29454       -0.01642       -2.09333
H         -0.63136        2.34186       -2.44396
H         -1.24844        3.46508       -1.21521
H         -2.08652        3.31540       -2.76567
H         -2.76836        1.16040       -2.16861
H         -2.41885        2.64830        1.09338
H         -1.58603        1.40283        2.07749
H         -0.63913        2.48963        1.06819
H         -3.58610       -0.67327       -0.71505
H         -5.36197        0.27925        0.61558
H         -4.24420        1.18430        1.63087
H         -4.47008        1.64577       -0.06569
H         -2.95008       -0.75998        2.29460
H          0.68443       -2.88375       -2.33738
H          0.38103       -3.39145       -0.61674
H         -1.85386       -2.46391       -0.72981
H         -1.55620       -1.90725       -2.43949
