46
519.log
C         -4.10206       -0.07070        1.61524
C         -3.58111        0.98445        0.65278
P         -1.73825        0.93627        0.52792
N         -1.39314        1.43030        2.09699
C         -1.54471        2.43596       -0.55056
C         -0.07795        2.68927       -0.80353
O          0.37940        3.39173       -1.65909
O          0.65795        2.09531        0.14210
Rh        -0.86312       -1.01804       -0.28717
Cl        -0.28240        0.17990       -2.27821
C          1.07572       -0.75573        3.21346
C          1.84408       -0.15206        2.04460
P          1.29526       -0.95414        0.45514
N          1.97211       -2.49227        0.60726
C          2.54086       -0.28995       -0.78323
C          3.54313        0.64191       -0.22636
O          3.33908        1.79488        0.09324
O          4.75205        0.08911       -0.08226
C         -1.80673       -2.52186       -1.65294
C         -0.45119       -2.82035       -1.31886
H         -3.69275        0.09491        2.60869
H         -3.79606       -1.06243        1.28665
H         -5.18849       -0.04068        1.67214
H         -3.99224        0.82524       -0.34773
H         -3.87945        1.98324        0.98855
H         -0.40051        1.45137        2.28880
H         -1.81808        2.31957        2.34405
H         -2.05660        2.29795       -1.50316
H         -1.97316        3.30815       -0.04465
H          1.63087        2.21402       -0.00952
H         -2.24453       -1.24227       -0.91023
H         -1.27438       -1.77955        0.96084
H          0.00457       -0.70829        3.02207
H          1.29240       -0.22189        4.13682
H          1.34722       -1.80075        3.35540
H          1.68766        0.92353        1.99222
H          2.91835       -0.33391        2.15905
H          2.87192       -2.50977        1.07842
H          1.33799       -3.16020        1.02484
H          1.94018        0.21610       -1.54926
H          3.02409       -1.16641       -1.21637
H          5.38819        0.74056        0.25506
H         -2.58219       -3.17531       -1.26257
H         -2.00418       -2.16227       -2.65860
H          0.29556       -2.67746       -2.09363
H         -0.27136       -3.69232       -0.69674
