42
525.log
C         -4.00680       -3.22958       -0.09353
C         -4.47739       -1.84373       -0.50594
O         -3.71804       -0.82552        0.16858
C         -2.54364       -0.51194       -0.32093
O         -2.02554       -0.97403       -1.30414
P         -1.73444        0.81506        0.71312
C         -1.71627        0.01372        2.34847
F         -3.07221        1.71695        0.93206
Rh         0.10152        1.55470       -0.35642
Cl         1.36006        1.05755        1.63124
C          4.52876       -3.08996        0.47150
C          3.76029       -2.07581        1.30485
O          2.48079       -1.78719        0.72776
C          2.43985       -0.90099       -0.24130
O          3.37739       -0.36497       -0.77081
P          0.68666       -0.59119       -0.78316
C          0.77349       -1.47285       -2.38112
F          0.00761       -1.75411        0.12365
C          1.21364        3.47544       -0.58494
C          1.80848        2.36677       -1.27413
H         -4.60963       -3.98201       -0.59352
H         -4.10170       -3.35656        0.98209
H         -2.96529       -3.36759       -0.37433
H         -5.51262       -1.66656       -0.20961
H         -4.36513       -1.70439       -1.58525
H         -2.71931       -0.33513        2.58990
H         -1.00267       -0.80665        2.33324
H         -1.38064        0.75103        3.07686
H         -0.09487        3.03381        0.02585
H         -0.67983        1.77580       -1.63747
H          4.75039       -2.67558       -0.50910
H          5.46312       -3.33412        0.96872
H          3.94363       -3.99869        0.34965
H          3.53717       -2.46400        2.30029
H          4.32148       -1.14004        1.38684
H          1.52447       -0.97239       -2.98909
H          1.05925       -2.50935       -2.20566
H         -0.19373       -1.42593       -2.87136
H          0.80719        4.28372       -1.18663
H          1.70815        3.81498        0.32163
H          2.72671        1.95684       -0.86367
H          1.79346        2.38669       -2.36103
