44
528.log
C          3.04841        0.73637        2.07045
N          2.65705        1.01569        0.70401
C          2.32336        2.24570        0.30672
O          1.79310        2.45940       -0.76485
P          2.14915       -0.21846       -0.42002
C          3.10588        0.21599       -1.92327
C          3.24187       -1.55569        0.19915
Rh        -0.02676       -0.91371       -0.51881
Cl         0.23339       -1.12861        1.86202
C         -3.73503        0.77118       -1.17979
N         -2.88989        0.83177        0.00084
C         -3.39031        0.32862        1.15717
O         -4.53115       -0.02818        1.32227
P         -1.17776        1.03761       -0.18848
C         -1.19873        2.33827       -1.47119
C         -0.84393        2.06312        1.29715
C         -0.76715       -3.03400       -0.57121
C         -1.80855       -2.06824       -0.46490
H          3.03098        1.66318        2.64352
H          2.33954        0.03386        2.51403
H          4.05402        0.31744        2.11251
H          2.57912        3.05623        1.01317
H          4.10693        0.54879       -1.65302
H          3.16480       -0.68561       -2.53112
H          2.59836        0.99059       -2.48865
H          2.87089       -1.93545        1.14852
H          4.26670       -1.20204        0.30575
H          3.21721       -2.36331       -0.53169
H          0.61324       -2.28661       -0.74190
H         -0.13307       -0.74900       -2.02048
H         -4.04330        1.77181       -1.48516
H         -3.20351        0.28899       -2.00080
H         -4.62347        0.19102       -0.92688
H         -2.63671        0.29762        1.96134
H         -0.18211        2.71098       -1.56570
H         -1.50313        1.92586       -2.42935
H         -1.86761        3.14462       -1.17426
H         -0.57127        1.43524        2.14357
H         -0.01318        2.72526        1.06799
H         -1.72737        2.65417        1.53554
H         -0.69196       -3.60599       -1.49126
H         -0.51302       -3.60120        0.31987
H         -2.31280       -1.98327        0.49440
H         -2.47435       -1.95705       -1.31563
