42
531.log
C         -4.18106        0.78675        0.74136
C         -3.64549       -0.58079        0.44949
O         -4.19560       -1.42572       -0.19983
O         -2.42809       -0.75984        1.01649
C         -1.78027       -1.99223        0.74560
P         -0.43781       -1.73363       -0.51816
C         -1.39965       -1.21270       -1.96666
F         -0.31782       -3.32028       -0.88118
Rh         1.52939       -0.76524        0.06868
Cl         1.27521        0.64544       -1.83155
C         -0.39028        3.42571       -2.31641
C         -0.88236        2.62514       -1.15426
O         -1.84149        1.89035       -1.16023
O         -0.15585        2.85993       -0.05229
C         -0.49929        2.15070        1.11720
P          0.70550        0.78639        1.50539
C         -0.02954        0.27798        3.10467
F          1.84514        1.76441        2.13117
C          3.63781       -1.12139       -0.62492
C          3.49888       -0.04893        0.30823
H         -3.72705        1.47042        0.02333
H         -5.25755        0.79461        0.60241
H         -3.91922        1.09993        1.74797
H         -2.50331       -2.71776        0.35232
H         -1.34635       -2.36250        1.67822
H         -1.70652       -0.17590       -1.83766
H         -0.75320       -1.26982       -2.84135
H         -2.26808       -1.85938       -2.08559
H          2.26665       -1.75819       -0.84315
H          1.69787       -1.72710        1.23489
H          0.04378        4.35916       -1.97244
H         -1.20094        3.59834       -3.01776
H          0.38677        2.84024       -2.80700
H         -1.49760        1.71267        1.01238
H         -0.47003        2.86353        1.94826
H         -0.12569        1.14483        3.75528
H         -1.00325       -0.16848        2.93135
H          0.62312       -0.45425        3.57265
H          4.15386       -2.01885       -0.29612
H          3.83200       -0.85726       -1.66111
H          3.59786        0.96365       -0.07338
H          3.91043       -0.18224        1.30506
