50
536.log
C          1.66577        3.27634        1.66929
C          1.52022        2.42844        0.41214
C          2.44944        1.24536        0.42286
O          3.57387        1.26013        0.84304
P          1.82352       -0.30591       -0.43439
C          3.30825       -1.34498       -0.24501
C          2.05307        0.23619       -2.20874
C          1.69353       -0.96640       -3.00972
O          2.47885       -1.77548       -3.42450
Rh        -0.08334       -1.21112        0.44132
Cl         0.95700       -0.10889        2.32799
C         -1.54639        4.06484       -0.78565
C         -2.40934        2.87084       -1.20324
C         -1.57354        1.61588       -1.19454
O         -0.85610        1.31210       -2.11259
P         -1.64277        0.42012        0.25823
C         -2.00891        1.46555        1.72082
C         -3.38355       -0.16827       -0.08689
C         -3.35811       -1.18883       -1.18303
O         -3.69537       -2.33022       -1.05444
C         -0.26255       -3.12770        1.59687
C         -1.44114       -2.32825        1.64654
H          1.03374        4.16056        1.61754
H          2.70020        3.58940        1.78333
H          1.39293        2.68744        2.54192
H          1.78306        3.01920       -0.47218
H          0.49581        2.06418        0.28580
H          3.22895       -2.20726       -0.90796
H          4.19749       -0.76140       -0.48645
H          3.37154       -1.67635        0.79195
H          1.36828        1.05747       -2.41535
H          3.09827        0.52315       -2.34744
H          0.60522       -1.08696       -3.15851
H          0.78765       -2.44974        0.65732
H         -0.58879       -1.85058       -0.83208
H         -1.19430        3.95028        0.23602
H         -2.13056        4.97941       -0.85082
H         -0.68620        4.15568       -1.44387
H         -3.26537        2.78394       -0.53401
H         -2.76645        3.03038       -2.22318
H         -1.09738        1.96698        2.03993
H         -2.80058        2.18879        1.53605
H         -2.30955        0.79448        2.52517
H         -3.78002       -0.61101        0.83046
H         -4.00145        0.68097       -0.38933
H         -2.99688       -0.79457       -2.15232
H         -0.30872       -4.06372        1.04900
H          0.35653       -3.16844        2.48915
H         -1.65592       -1.82674        2.58763
H         -2.31783       -2.70353        1.12720
