46
555.log
C          3.93184       -1.07351        2.50333
N          3.05182       -0.93015        1.36150
C          2.46688        0.39170        1.26452
P          1.67652        0.43857       -0.39475
C          3.18777        0.19602       -1.41281
C          1.55964        2.26161       -0.71270
O          2.33650        3.07987       -0.30895
O          0.54552        2.55175       -1.52876
Rh        -0.05843       -0.94522       -0.94696
Cl        -0.12260       -1.77794        1.30631
C         -2.67546       -0.06087        2.81848
N         -3.12633       -0.86247        1.70670
C         -3.27327       -0.14255        0.49313
P         -1.72271        0.48623       -0.40856
C         -2.58619        1.47993       -1.68416
C         -1.17819        1.83346        0.73068
O         -0.05848        1.94132        1.16772
O         -2.14811        2.70686        1.00043
C         -0.05430       -3.05661       -1.63969
C         -1.36903       -2.48798       -1.53018
H          4.77592       -0.39165        2.38541
H          4.30929       -2.09453        2.53101
H          3.44064       -0.85365        3.46181
H          2.28785       -1.60218        1.44541
H          1.73476        0.62147        2.05138
H          3.25461        1.15460        1.27384
H          2.92207        0.19402       -2.46856
H          3.61513       -0.76712       -1.13772
H          3.90605        0.98896       -1.20585
H          0.53263        3.50415       -1.73588
H          0.99413       -2.01586       -1.28411
H         -0.01339       -0.42762       -2.36911
H         -2.64383       -0.68408        3.70944
H         -1.66951        0.35321        2.65246
H         -3.37442        0.76196        2.97936
H         -2.48321       -1.64585        1.59063
H         -3.90574        0.73779        0.66385
H         -3.75352       -0.78873       -0.25291
H         -1.84132        1.98365       -2.29552
H         -3.26198        2.20378       -1.23312
H         -3.14639        0.79073       -2.31446
H         -1.83643        3.39680        1.61195
H          0.31162       -3.28804       -2.63606
H          0.22275       -3.79950       -0.89617
H         -1.99372       -2.85988       -0.72176
H         -1.91758       -2.32174       -2.45429
