44
559.log
C         -3.37272       -1.82848       -0.58166
P         -2.14541       -0.47785       -0.25578
C         -3.18994        0.19498        1.11826
O         -3.76175        1.24304        1.05912
C         -2.67123        0.64803       -1.64124
C         -1.60404        1.64065       -2.05472
N         -1.07072        2.34039       -0.91738
O         -1.09916        1.75452        0.16027
O         -0.55543        3.42306       -1.07196
Rh        -0.01693       -1.35214       -0.00281
Cl         0.73108       -0.43045       -2.12441
C          1.88654       -0.26754        2.77627
P          0.90555        0.30089        1.32527
C         -0.35899        1.06944        2.43786
O         -1.33031        0.49802        2.83615
C          1.77048        1.88469        0.84470
C          2.46372        1.81496       -0.50244
N          3.53853        0.82964       -0.46831
O          4.48796        0.98680       -1.19269
O          3.39451       -0.10469        0.29238
C          0.80561       -3.32613       -0.67946
C          1.72795       -2.55434        0.08300
H         -3.33605       -2.54323        0.23962
H         -4.38240       -1.42496       -0.66597
H         -3.11312       -2.34514       -1.50453
H         -3.32038       -0.50911        1.95641
H         -2.91586        0.01928       -2.49938
H         -3.57431        1.16565       -1.29743
H         -1.93140        2.36518       -2.80160
H         -0.73647        1.05770       -2.45462
H         -0.54313       -2.54310       -0.80403
H         -0.49815       -1.97973        1.27970
H          2.07954        0.56581        3.45207
H          1.29886       -1.02480        3.29291
H          2.82250       -0.70211        2.43851
H         -0.11202        2.09429        2.78851
H          2.49653        2.12361        1.62746
H          1.02493        2.68077        0.80595
H          2.87798        2.77239       -0.82381
H          1.76650        1.44961       -1.27545
H          0.39060       -4.22196       -0.22696
H          0.99108       -3.42662       -1.74565
H          2.57152       -2.11482       -0.43786
H          1.96918       -2.89411        1.08526
