38
56.log
C         -3.99847        0.47361       -0.35413
C         -3.25769       -0.79604       -0.74748
C         -3.95318       -2.04638       -0.22759
P         -1.52751       -0.71453       -0.09044
O         -1.72118       -1.15442        1.41273
F         -1.05071       -2.14726       -0.70430
Rh        -0.07116        1.01058       -0.35878
Cl         0.00016        1.15762        2.09345
C          3.62916       -2.28103       -0.59863
C          2.14724       -2.00254       -0.38364
C          1.63728       -2.68062        0.88294
P          1.86467       -0.17641       -0.20385
O          2.65441        0.13255        1.13058
F          2.99491        0.33999       -1.24155
C         -0.30413        3.22869       -0.50329
C          1.05547        2.76904       -0.52454
H         -3.51073        1.35087       -0.77806
H         -4.02009        0.57596        0.73024
H         -5.02419        0.44410       -0.71631
H         -3.16302       -0.84664       -1.83738
H         -3.39144       -2.93792       -0.49601
H         -4.95178       -2.12425       -0.65353
H         -4.03982       -2.00705        0.85582
H         -1.21014       -0.54434        1.99012
H         -1.21826        2.04443       -0.41342
H         -0.10328        0.85723       -1.85986
H          3.96582       -1.89280       -1.55629
H          3.81142       -3.35379       -0.57620
H          4.21485       -1.81232        0.18997
H          1.56553       -2.34265       -1.24407
H          1.69912       -3.76197        0.78048
H          2.24002       -2.37894        1.73758
H          0.60001       -2.41776        1.07966
H          2.05301        0.56495        1.76674
H         -0.70256        3.65931       -1.41727
H         -0.63901        3.74372        0.39375
H          1.66198        2.97510        0.35414
H          1.60693        2.86552       -1.45510
