42
565.log
C          0.99847        1.51086        2.10717
P          1.41369        0.19976        0.89664
C          2.28580       -0.99189        1.97529
C          2.87171        0.99332        0.07584
N          3.42439        0.00035       -0.82272
O          4.56895        0.52158       -1.51025
Rh        -0.18758       -0.78212       -0.42857
Cl        -0.91895       -1.92102        1.54713
C         -3.60090        0.00749       -0.69232
P         -1.98087        0.62264       -0.08418
C         -2.44108        1.05641        1.63434
C         -2.05350        2.33328       -0.81925
N         -0.94082        3.09784       -0.27404
O          0.22620        2.91864       -1.08547
C         -0.09504       -2.76991       -1.45698
C         -1.35135       -2.11470       -1.60541
H          0.51896        2.34661        1.59987
H          0.31393        1.08567        2.83933
H          1.90510        1.84921        2.60833
H          2.93733       -0.46702        2.67319
H          2.87274       -1.66287        1.34943
H          1.54164       -1.57015        2.52076
H          3.62387        1.21717        0.84136
H          2.58869        1.93178       -0.42252
H          2.74471       -0.19024       -1.56207
H          5.33258        0.08445       -1.11035
H          0.89498       -1.84083       -0.65059
H          0.25242       -0.06110       -1.69284
H         -3.54840       -0.20051       -1.75920
H         -3.84001       -0.91219       -0.16140
H         -4.37758        0.74790       -0.50086
H         -3.48351        1.37069        1.66613
H         -2.30140        0.18038        2.26440
H         -1.80410        1.86582        1.98206
H         -2.03389        2.28741       -1.91662
H         -2.98763        2.80244       -0.49854
H         -1.11919        4.09802       -0.36186
H          0.42489        1.96806       -1.02225
H          0.53629       -2.87468       -2.33459
H         -0.04937       -3.61789       -0.77992
H         -2.18651       -2.52615       -1.04720
H         -1.61671       -1.75351       -2.59550
