46
571.log
C         -0.01426       -2.78907       -2.09486
N         -0.91230       -1.64464       -1.98530
P         -1.43921       -1.05235       -0.48188
C         -2.14837       -2.58655        0.21144
C         -2.97539       -0.24901       -1.18897
C         -3.53877        0.68025       -0.16868
O         -3.75421        1.85250       -0.32145
O         -3.76023        0.04858        0.99125
Rh        -0.11487        0.13485        0.96442
Cl         1.26552       -1.80889        0.73464
C         -0.70737        2.98534       -1.71863
N          0.31595        1.97260       -1.95485
P          1.07318        1.30046       -0.58295
C          1.99931        2.77738       -0.03185
C          2.38674        0.39333       -1.52112
C          3.31736       -0.27345       -0.54563
O          3.67924        0.22878        0.48650
O          3.77938       -1.43915       -0.99857
C          0.13549       -0.04743        3.18755
C          1.07069        0.83921        2.56273
H          0.04789       -3.06976       -3.14744
H          0.99038       -2.59688       -1.71308
H         -0.43146       -3.62168       -1.53550
H         -0.53856       -0.87527       -2.53751
H         -2.62372       -3.16257       -0.58182
H         -2.87587       -2.31794        0.97491
H         -1.34560       -3.16120        0.67129
H         -2.73940        0.30136       -2.09998
H         -3.68587       -1.04453       -1.41448
H         -4.05762        0.67989        1.66584
H         -0.84076       -0.55928        2.13587
H         -1.04476        1.32335        1.09079
H         -1.56591        2.61684       -1.14928
H         -1.05694        3.35746       -2.68161
H         -0.25969        3.81081       -1.17078
H         -0.08442        1.22911       -2.52343
H          2.83955        2.45193        0.57607
H          2.34793        3.32314       -0.90780
H          1.35022        3.40844        0.57164
H          2.94164        1.13102       -2.10625
H          1.96077       -0.35362       -2.19258
H          4.29814       -1.88535       -0.31108
H         -0.60131        0.38655        3.85825
H          0.51138       -1.00964        3.52502
H          2.09789        0.49920        2.46749
H          0.97984        1.89831        2.78751
