42
575.log
C          2.19498        0.26838        1.85838
P          1.86111       -0.20034        0.11754
N          2.99291       -1.45588        0.04247
C          2.75794        1.09343       -0.84540
C          4.18047        1.39151       -0.37963
O          4.85073        2.27335       -1.24843
Rh        -0.28005       -0.71062       -0.52102
Cl        -0.09337       -2.20562        1.36796
C         -0.70530        2.56075        0.78141
P         -1.32397        0.83717        0.78926
N         -1.39555        0.57605        2.45438
C         -3.12559        1.13406        0.52789
C         -3.43063        1.77367       -0.82380
O         -4.79912        1.73298       -1.14906
C         -1.03806       -2.43145       -1.73162
C         -2.07492       -1.64978       -1.12333
H          3.26741        0.19837        2.02865
H          1.68177       -0.44833        2.49863
H          1.84323        1.27434        2.07404
H          2.68792       -2.19161        0.67884
H          3.04697       -1.85768       -0.89065
H          2.77480        0.73376       -1.88094
H          2.15040        2.00144       -0.83443
H          4.17041        1.90273        0.58449
H          4.73800        0.45101       -0.27314
H          4.88695        1.88049       -2.12783
H          0.31946       -1.79392       -1.43873
H         -0.30759        0.24417       -1.69671
H         -1.29777        3.15343        1.47605
H          0.34185        2.58552        1.07585
H         -0.78792        2.96142       -0.22567
H         -0.46800        0.62726        2.86771
H         -1.73387       -0.36935        2.63188
H         -3.62941        0.16393        0.59640
H         -3.48116        1.75783        1.35186
H         -3.17530        2.83495       -0.81053
H         -2.82819        1.28484       -1.60455
H         -5.08744        0.81345       -1.17354
H         -0.96237       -2.41135       -2.81523
H         -0.83951       -3.41120       -1.30441
H         -2.60126       -2.10673       -0.28827
H         -2.72462       -1.09304       -1.79245
