42
581.log
C          1.83114       -1.33317       -2.06336
C          2.61923       -1.33682       -0.77537
Br         4.18162       -0.17074       -0.91322
P          1.68248       -0.73876        0.71234
C          2.93664       -0.91899        2.03459
C          0.72680       -2.28293        1.02723
O          0.29082       -3.02984        0.17976
O          0.47378       -2.42144        2.32769
Rh         0.36872        1.12141        0.76056
Cl         1.31089        1.94688       -1.26566
C         -3.36486        0.59569        1.68300
C         -3.14323        0.73568        0.19318
Br        -4.45066       -0.35052       -0.78285
P         -1.41611        0.37712       -0.45049
C         -1.61443        1.04817       -2.13196
C         -1.66898       -2.30955       -0.36564
O         -1.40034       -1.20361       -0.96986
O         -2.18315       -2.08522        0.85993
C          0.75169        3.15760        1.57716
C         -0.54040        3.02204        0.98398
H          0.95494       -1.97237       -1.95251
H          1.50900       -0.31932       -2.30108
H          2.44171       -1.70654       -2.88469
H          3.02031       -2.33209       -0.55029
H          2.42119       -0.86165        2.99287
H          3.46040       -1.87279        1.95232
H          3.65370       -0.10083        1.96649
H         -0.09888       -3.18785        2.50282
H          1.52548        1.78361        1.51219
H         -0.21278        0.63096        2.08073
H         -3.24927       -0.43714        2.00148
H         -4.36540        0.93390        1.95023
H         -2.63295        1.19824        2.21834
H         -3.34404        1.76611       -0.11969
H         -0.74098        0.76726       -2.71770
H         -1.65702        2.13460       -2.08564
H         -2.51091        0.64650       -2.60508
H         -2.48663       -2.91800        1.24499
H          0.80652        3.28067        2.65478
H          1.49505        3.73063        1.03100
H         -0.69600        3.52091        0.03102
H         -1.40068        3.07782        1.64607
