44
589.log
C          4.00109       -1.28372        0.34779
C          3.13775       -0.50263        1.32445
P          1.74991        0.46402        0.57335
C          2.66698        1.82014       -0.29184
Cl         3.17744        1.20656       -1.86216
O          1.36990        1.43598        1.81896
C          0.81969        0.98873        3.05578
Rh         0.15812       -0.70101       -0.57835
Cl        -0.04768       -1.81479        1.53963
C         -2.43514        3.34073        0.38614
C         -1.22756        2.45846        0.09851
P         -1.61146        0.65448       -0.15149
C         -2.70369        0.29077        1.28673
Cl        -3.49130       -1.25544        0.95929
O         -2.82591        0.72989       -1.21436
C         -2.59986        0.96898       -2.59225
C          0.25458       -2.71269       -1.56674
C         -1.06232       -2.15996       -1.50584
H          4.52346       -0.62262       -0.33926
H          3.39115       -1.97134       -0.23565
H          4.73951       -1.86751        0.89430
H          3.73847        0.21502        1.89404
H          2.65786       -1.19127        2.02763
H          2.00714        2.67224       -0.45630
H          3.54930        2.13205        0.26832
H          1.60840        0.95285        3.80889
H          0.36723       -0.00003        2.95848
H          0.06475        1.71568        3.35993
H          1.25531       -1.69687       -0.97922
H          0.37875        0.02264       -1.89009
H         -2.75969        3.23911        1.41881
H         -3.26715        3.08147       -0.26607
H         -2.18201        4.38580        0.21664
H         -0.75330        2.76099       -0.84177
H         -0.47620        2.55381        0.88069
H         -2.11862        0.18563        2.19997
H         -3.48641        1.04113        1.39337
H         -3.39597        0.46462       -3.14084
H         -1.62888        0.57861       -2.90974
H         -2.63797        2.04046       -2.80262
H          0.72283       -2.80526       -2.54295
H          0.48050       -3.53722       -0.89544
H         -1.75434       -2.60781       -0.79837
H         -1.53084       -1.87153       -2.44258
