36
59.log
C         -3.87582        0.85545       -3.13448
C         -3.62173        0.54683       -1.66326
C         -2.17853        0.09500       -1.46449
P         -1.69755       -0.35205        0.26787
Cl        -3.19511       -1.52565        0.80208
Br        -2.25267        1.57104        1.23497
Rh         0.38684       -1.16087        0.72784
Cl        -0.21963       -2.50260       -1.15946
C          0.88877        4.12284        1.22788
C          1.38233        2.69236        1.05448
C          1.10425        2.19024       -0.35849
P          1.45899        0.38697       -0.55663
Cl         1.28119        0.20375       -2.52539
Br         3.65392        0.49604       -0.33366
C          1.11871       -3.01893        1.77001
C          2.13098       -2.29654        1.07402
H         -4.90663        1.16891       -3.27740
H         -3.69514       -0.02414       -3.74855
H         -3.22372        1.65556       -3.47858
H         -4.30711       -0.23922       -1.33986
H         -3.82784        1.44157       -1.07050
H         -1.48908        0.88074       -1.79386
H         -1.97567       -0.79801       -2.06160
H         -0.21443       -2.23117        1.64747
H          0.65117       -0.31551        1.96096
H         -0.19088        4.16714        1.10426
H          1.35746        4.78179        0.50033
H          1.13253        4.48141        2.22356
H          2.45460        2.64564        1.25841
H          0.87172        2.05123        1.77774
H          0.04674        2.34186       -0.59734
H          1.70114        2.74109       -1.09346
H          1.15239       -3.02798        2.85517
H          0.76887       -3.94904        1.33065
H          2.50674       -2.72626        0.14726
H          2.89040       -1.78532        1.66138
