46
597.log
C         -3.96911        2.10050       -0.02928
C         -2.50389        1.82270       -0.34342
C         -1.58630        2.88321        0.24923
P         -1.98968        0.11224        0.17964
C         -2.44789        0.07015        1.95887
C         -2.53249       -2.65262        0.14430
O         -2.78956       -2.92439        1.21448
Rh        -0.02913       -0.75785       -0.59700
Cl         0.25894        1.05387       -2.12671
C          2.31196        2.73490        0.23397
C          2.87055        1.33139        0.43280
C          3.61491        0.88892       -0.81972
P          1.49705        0.13686        0.87912
C          0.93805        0.82713        2.48067
C          2.56333       -1.19544        1.57158
O          2.49245       -1.58003        2.70592
C          0.31377       -2.15088       -2.32353
C          1.51021       -1.85249       -1.62812
H         -4.27345        3.03196       -0.50336
H         -4.12866        2.20291        1.04219
H         -4.60988        1.30345       -0.40442
H         -2.35951        1.81529       -1.43164
H         -1.72589        2.97055        1.32640
H         -1.79450        3.85300       -0.19839
H         -0.55002        2.62727        0.03823
H         -2.04137       -0.82892        2.41747
H         -2.02757        0.93607        2.46661
H         -3.53112        0.07426        2.06784
H         -3.13363       -0.50979       -0.32291
H         -0.95391       -1.35132       -1.64200
H         -0.18569       -1.92974        0.35855
H          1.63142        2.73806       -0.61507
H          3.12550        3.42582        0.01857
H          1.78875        3.09269        1.11833
H          3.55324        1.32198        1.29596
H          4.00934       -0.12131       -0.72273
H          4.44934        1.56285       -1.00842
H          2.94198        0.93590       -1.67348
H          0.24603        1.65059        2.32174
H          1.79817        1.16374        3.05965
H          0.43658        0.02498        3.02135
H          3.27330       -1.65751        0.85598
H         -0.11731       -3.14145       -2.21767
H          0.17287       -1.70246       -3.30254
H          2.22438       -1.20518       -2.12448
H          1.95817       -2.64220       -1.03140
