42
602.log
C         -2.03397       -1.06766        2.42130
P         -1.65250       -0.34433        0.77228
C         -2.56405       -1.54774       -0.18396
N         -3.20298       -2.26493       -0.80684
C         -3.07373        0.89008        0.76456
C         -3.17082        1.83441       -0.42905
N         -2.23600        1.53939       -1.52469
O         -1.72511        0.43699       -1.56831
O         -2.04528        2.41023       -2.33472
Rh         0.41260        0.81764        0.78657
Cl         1.88578       -0.97910        1.30801
C          1.09377        1.31575       -2.71256
P          1.41160        0.37417       -1.16733
C          3.15075        0.71651       -1.05503
N          4.26911        0.95537       -0.99760
C          1.57069       -1.35843       -1.82427
C          0.31189       -2.19266       -1.61103
N          0.37080       -2.91036       -0.31932
O         -0.45406       -2.63291        0.52480
O          1.19376       -3.77914       -0.21961
C          1.08287        1.84234        2.76117
C          1.87583        2.07613        1.52842
H         -1.32714       -1.87415        2.60488
H         -1.91433       -0.30767        3.19456
H         -3.04835       -1.46469        2.44868
H         -2.95467        1.48327        1.67489
H         -3.99390        0.30747        0.86275
H         -2.97947        2.87389       -0.15145
H         -4.16788        1.79159       -0.87989
H          0.16672        1.14816        2.43184
H         -0.34218        2.06083        0.34373
H          1.03771        2.37672       -2.47362
H          0.14411        1.00746       -3.14398
H          1.89783        1.14489       -3.42817
H          2.41692       -1.84206       -1.32742
H          1.79294       -1.28113       -2.89174
H          0.24389       -2.96670       -2.38064
H         -0.58582       -1.57124       -1.62505
H          0.62072        2.73244        3.18635
H          1.60213        1.26245        3.52268
H          2.87721        1.65153        1.53157
H          1.88153        3.10026        1.15842
