46
629.log
C         -3.37146        3.00421        1.81557
C         -3.09959        2.09850        0.65616
O         -3.81197        1.94116       -0.29651
O         -1.93135        1.43876        0.79591
P         -1.56270        0.18103       -0.21054
C         -1.43289        0.98440       -1.85784
C         -3.24054       -0.66542       -0.24409
C         -3.63715       -1.31013       -1.52077
O         -3.84151       -0.71201        0.79788
Rh         0.09941       -1.16616        0.55259
Cl        -0.30224       -2.18303       -1.57968
C          1.75084        3.98100       -0.44916
C          2.34566        2.60402       -0.44862
O          3.51136        2.34224       -0.55520
O          1.40261        1.65582       -0.31209
P          1.78619        0.02990       -0.34852
C          2.34227       -0.20374       -2.06927
C          3.44808       -0.03077        0.52464
C          3.49203        0.58060        1.89091
O          4.34312       -0.64154        0.00869
C          0.06184       -3.18004        1.50766
C          1.37638       -2.73455        1.14747
H         -2.44415        3.42051        2.19772
H         -4.06522        3.78754        1.52493
H         -3.82706        2.40218        2.60086
H         -2.36296        1.48889       -2.11075
H         -0.61653        1.70399       -1.82589
H         -1.20756        0.21136       -2.58799
H         -4.51140       -1.94111       -1.37793
H         -2.78975       -1.89405       -1.88707
H         -3.85880       -0.53985       -2.25694
H         -0.95166       -2.08033        1.20908
H          0.26390       -0.46223        1.88211
H          0.91181        4.02203        0.23969
H          2.50919        4.71163       -0.18360
H          1.38574        4.20315       -1.45093
H          3.15407        0.48548       -2.29833
H          2.69974       -1.22850       -2.15119
H          1.50252       -0.07064       -2.74953
H          4.01591       -0.08316        2.57632
H          4.05484        1.51179        1.83453
H          2.48382        0.78188        2.25009
H         -0.16450       -3.27795        2.56538
H         -0.38033       -3.96276        0.89650
H          1.85034       -3.22056        0.29805
H          2.06934       -2.50833        1.95363
