42
630.log
C         -1.47535        2.59575       -2.14232
P         -1.20294        1.41593       -0.76351
C         -2.31494        2.13388        0.49704
C         -2.27260        0.03776       -1.43994
O         -2.42313       -0.97568       -0.44733
C         -3.57869       -1.05943        0.14504
O         -4.57755       -0.45097        0.00421
F         -3.48311       -2.05840        1.05793
Rh         0.96046        0.90438       -0.28873
Cl         0.85594        2.28163        1.65814
C         -0.60128       -0.62831        2.50366
P          0.66643       -0.82105        1.19358
C          2.08299       -1.23134        2.27802
C          0.15209       -2.53378        0.60935
O          0.35001       -2.71720       -0.78830
C          1.58519       -2.61924       -1.18792
O          2.57619       -2.45348       -0.56663
F          1.61093       -2.80353       -2.52081
C          2.86574        1.93887       -0.89305
C          3.06711        0.79298       -0.07089
H         -2.53886        2.73288       -2.33512
H         -0.98003        2.22643       -3.03900
H         -1.03244        3.55204       -1.86670
H         -3.30245        2.32621        0.07795
H         -2.39459        1.47655        1.36027
H         -1.85664        3.06331        0.83437
H         -1.75571       -0.42745       -2.28298
H         -3.25744        0.40609       -1.74781
H          1.34124        2.11601       -1.14648
H          1.01914        0.01807       -1.51949
H         -0.55510       -1.47069        3.19310
H         -0.38821        0.29808        3.03441
H         -1.59749       -0.57059        2.07508
H          2.33988       -0.32732        2.82905
H          1.79756       -2.01378        2.98123
H          2.93587       -1.55215        1.68561
H          0.71425       -3.29575        1.16129
H         -0.91836       -2.67472        0.75957
H          3.16569        1.88100       -1.93530
H          3.02976        2.91336       -0.44118
H          3.38024        0.97673        0.95250
H          3.51342       -0.08907       -0.52067
