38
638.log
C          3.17592        0.62469        1.23039
P          1.66145       -0.25152        0.69532
C          1.66409       -1.66012        1.86626
C          2.37014       -1.03353       -0.86459
O          2.75660       -0.04963       -1.73823
F          3.49278       -1.72487       -0.48872
Rh        -0.16213        1.11583        0.36915
Cl        -0.08444        0.80678       -2.03194
C         -3.46080        0.04267       -0.29594
P         -1.82269       -0.44354        0.35926
C         -2.29652       -1.36387        1.86470
C         -1.53248       -1.88369       -0.80215
O         -2.61118       -2.72500       -0.75581
F         -0.40612       -2.56459       -0.35249
C         -0.24212        3.32362        0.02286
C         -1.52920        2.70838        0.07549
H          3.98581       -0.08681        1.38724
H          3.46282        1.33321        0.45331
H          2.96507        1.16337        2.15325
H          1.43603       -1.27704        2.86002
H          2.64947       -2.12453        1.86512
H          0.91662       -2.39425        1.58017
H          1.68983       -1.77435       -1.31314
H          1.92940        0.35368       -2.09258
H          0.86432        2.24725        0.27059
H         -0.25590        1.29606        1.86897
H         -3.33794        0.44264       -1.30171
H         -4.11775       -0.82509       -0.32186
H         -3.88360        0.81383        0.34535
H         -2.68595       -0.64779        2.58635
H         -3.05380       -2.10831        1.62651
H         -1.41725       -1.84402        2.28917
H         -1.28184       -1.53728       -1.81631
H         -2.47503       -3.47963       -1.34362
H          0.04101        3.98423        0.83685
H          0.11566        3.65085       -0.94943
H         -2.07359        2.62915       -0.86076
H         -2.16089        2.93636        0.93007
