44
639.log
C          1.97949        3.47013       -0.32254
C          1.22984        2.29768       -0.94404
P          1.52815        0.69960       -0.06874
C          1.20517        1.14598        1.70390
O          0.19477        1.72231        2.03485
C          3.38986        0.61538       -0.06883
C          3.99898        0.48288       -1.43405
O          4.00896        0.64468        0.96103
Rh         0.34608       -1.21787       -0.47252
Cl         0.74611       -1.28033        1.92649
C         -2.80556       -1.27180        2.13236
C         -3.07047       -0.94818        0.66627
P         -1.59872       -0.10262       -0.05872
C         -3.54822        3.34614        0.89917
O         -3.43646        2.23714        0.73259
C         -2.28957        0.79171       -1.52916
C         -3.11110       -0.04339       -2.46204
O         -2.01452        1.95110       -1.70990
C          0.92418       -3.36185       -0.65421
C         -0.49090       -3.14967       -0.53477
H          1.64923        3.63344        0.70109
H          1.78254        4.37676       -0.89138
H          3.05495        3.29785       -0.30909
H          1.50291        2.15473       -1.99374
H          0.14849        2.46986       -0.90688
H          2.05886        0.98939        2.38312
H          3.29411        0.00374       -2.11308
H          4.92950       -0.07900       -1.38527
H          4.22523        1.48012       -1.81168
H          1.63936       -2.02326       -0.70674
H          0.19524       -1.04888       -1.97195
H         -2.61980       -0.35811        2.69477
H         -3.66060       -1.78263        2.57105
H         -1.92904       -1.90745        2.23774
H         -3.26539       -1.86247        0.09774
H         -3.93750       -0.28711        0.57515
H         -1.48677        0.96883        0.80700
H         -2.63555       -1.01615       -2.57907
H         -4.09879       -0.19437       -2.02757
H         -3.21891        0.44750       -3.42649
H          1.29571       -3.74821       -1.59915
H          1.43743       -3.77322        0.21102
H         -0.94924       -3.43344        0.40931
H         -1.10309       -3.38481       -1.40196
