46
64.log
C         -1.52082       -1.90846        2.54496
C         -2.30541       -1.91568        1.24390
P         -1.56981       -0.80032       -0.01217
F         -2.62351       -1.15244       -1.20684
C         -2.22774        0.86058        0.43895
C         -3.72854        0.87101        0.31370
C         -4.23762        1.55557       -0.91962
O         -4.44513        0.35159        1.13424
Rh         0.58901       -1.03284       -0.70199
Cl         0.36052        1.04487       -1.85168
C          4.18506       -0.71650        1.46168
C          2.82506       -0.54668        2.11773
P          1.51269        0.12923        1.00661
F          0.52055        0.50520        2.23525
C          2.18937        1.80675        0.65665
C          1.09416        2.78119        0.24919
C          1.52707        3.83728       -0.72943
O          0.01373        2.76146        0.78093
C          1.44375       -1.86424       -2.58527
C          2.43493       -1.35072       -1.69443
H         -1.57655       -0.93484        3.02519
H         -1.92057       -2.65216        3.23077
H         -0.47197       -2.13760        2.35495
H         -3.34119       -1.60681        1.40586
H         -2.30153       -2.91461        0.79932
H         -1.91198        1.03693        1.46867
H         -1.75484        1.60261       -0.20486
H         -3.75504        1.12527       -1.79492
H         -5.31652        1.45095       -0.99853
H         -3.97359        2.61078       -0.87808
H          0.02355       -1.78045       -1.90859
H          0.73885       -2.35320        0.03260
H          4.56791        0.23352        1.09527
H          4.89801       -1.11505        2.18103
H          4.12232       -1.40845        0.62684
H          2.45970       -1.51109        2.47779
H          2.88726        0.13041        2.97473
H          2.64610        2.18376        1.57729
H          2.94518        1.72062       -0.12361
H          0.73606        4.57128       -0.85529
H          1.73774        3.37469       -1.68995
H          2.43234        4.32320       -0.36970
H          1.41846       -2.93645       -2.75384
H          1.20908       -1.27577       -3.46755
H          2.92031       -0.42086       -1.97832
H          3.10582       -2.07484       -1.24069
