30
662.log
C          1.57021        2.42085       -0.77118
P          1.68415        0.61361       -0.44244
Cl         3.29085        0.17592       -1.49279
C          2.47122        0.65865        1.25558
O          3.48391        0.09286        1.53910
O          1.79818        1.48371        2.05087
Rh        -0.02454       -0.88970       -0.54878
Cl         0.56539       -1.34881        1.73436
C         -1.42444        1.39743        1.81754
P         -1.70592        0.39359        0.30784
Cl        -3.38122       -0.51063        0.79043
C         -2.43482        1.71650       -0.78665
O         -3.51407        1.67177       -1.29972
O         -1.56743        2.71258       -0.94415
C         -0.00877       -3.10108       -0.99513
C         -1.28082       -2.60022       -0.60542
H          0.80709        2.86595       -0.13920
H          2.53666        2.89068       -0.58903
H          1.28929        2.55149       -1.81471
H          2.14117        1.43932        2.96034
H          1.01140       -1.89682       -1.05009
H         -0.36956       -0.53659       -1.98647
H         -0.60446        2.09237        1.65507
H         -1.14200        0.70222        2.60801
H         -2.33569        1.92873        2.09150
H         -1.91112        3.38515       -1.55937
H          0.12820       -3.41479       -2.02561
H          0.54276       -3.69618       -0.27249
H         -1.63360       -2.85294        0.39107
H         -2.06490       -2.55054       -1.35609
