46
672.log
C         -2.66831       -2.76131       -0.14050
P         -1.16925       -1.71572       -0.01915
C         -0.64057       -2.14137        1.67741
C         -0.03532       -2.75135       -1.07449
N          1.25259       -2.15242       -1.34079
C          2.39973       -2.76900       -0.92416
Cl         2.73988       -2.66960        0.94929
Rh        -1.52123        0.47363       -0.57688
Cl        -3.02940        0.32132        1.27579
C         -0.24861        1.53034        2.55765
P          0.03588        1.47366        0.75337
C          0.36517        3.25423        0.43956
C          1.77802        0.85488        0.74415
N          2.24617        0.69028       -0.62017
C          3.62891        0.61782       -0.77246
Cl         4.50562        2.20227       -0.33656
C         -3.19288        1.35609       -1.77200
C         -2.36356        2.33222       -1.13703
H         -2.44852       -3.78024        0.17829
H         -3.42928       -2.32899        0.50804
H         -3.03613       -2.76692       -1.16613
H         -1.35058       -1.68606        2.36658
H          0.35916       -1.75988        1.87251
H         -0.64620       -3.22420        1.80205
H          0.09311       -3.73387       -0.61017
H         -0.55986       -2.88740       -2.03196
H          1.24845       -1.13692       -1.25162
H          2.38379       -3.84414       -1.09264
H          3.28965       -2.30312       -1.33776
H         -2.62030       -0.05770       -1.50588
H         -0.56976        0.49797       -1.76160
H         -0.29372        0.51951        2.95663
H         -1.21113        2.00719        2.73736
H          0.54710        2.09154        3.04688
H          1.16756        3.60760        1.08711
H          0.64158        3.41175       -0.60178
H         -0.54195        3.82026        0.64439
H          2.40003        1.57354        1.30081
H          1.83836       -0.11503        1.24989
H          1.81856        1.37403       -1.23846
H          3.91047        0.43125       -1.80712
H          4.05874       -0.11885       -0.09486
H         -3.16747        1.29651       -2.85640
H         -4.18013        1.19108       -1.34932
H         -2.79153        2.85722       -0.28684
H         -1.75482        2.96354       -1.77878
