48
679.log
C          4.26525       -0.98180       -0.40714
C          3.54489       -0.28174        0.73304
P          1.86965        0.35813        0.23504
C          2.48400        1.81706       -0.82120
C          1.27293        2.58697       -1.15408
O          0.34043        2.13434       -1.77446
O          1.37001        1.07749        1.60139
C          2.13024        1.89091        2.48215
Rh         0.23353       -0.81693       -0.71181
Cl         0.01565       -2.38371        1.77541
C         -3.72529        2.12811       -0.68415
C         -2.68533        1.20141       -1.27891
P         -1.37482        0.60287       -0.09933
C         -2.44218        0.05167        1.37468
C         -3.23349       -1.12052        1.02568
O         -2.91628       -2.27588        1.24660
O         -1.01290        2.12285        0.48497
C         -1.82408        2.79463        1.25153
C          0.12334       -2.78034       -1.75215
C         -1.12433       -2.08258       -1.67176
H          5.15539       -1.49047       -0.04168
H          3.61049       -1.72117       -0.86632
H          4.56845       -0.27215       -1.17365
H          4.15714        0.53281        1.13092
H          3.35495       -0.99292        1.54303
H          2.87247        1.32260       -1.71107
H          3.25905        2.40596       -0.33159
H          1.22379        3.61233       -0.73580
H          2.71786        2.63753        1.94467
H          1.40857        2.40010        3.12216
H          2.79166        1.28397        3.10346
H          1.22860       -1.91678       -1.12258
H          0.81522       -0.17995       -2.83653
H         -4.12731        2.80103       -1.43790
H         -4.54690        1.57906       -0.22922
H         -3.26671        2.75346        0.11066
H         -3.13667        0.30630       -1.70883
H         -2.11481        1.70018       -2.06568
H         -1.70855       -0.17480        2.15117
H         -3.03365        0.93049        1.63990
H         -4.18170       -0.91479        0.49796
H         -1.28331       -2.49955        1.66138
H          1.09141       -0.13673       -3.64449
H         -1.43415        3.84265        1.25420
H          0.58513       -2.88625       -2.72911
H          0.24202       -3.66325       -1.13098
H         -1.88713       -2.51879       -1.03221
H         -1.52443       -1.68393       -2.60225
