44
68.log
C          5.29751       -0.98291        0.14243
C          3.85389       -0.82122       -0.31565
C          3.16391        0.31961        0.42230
P          1.50909        0.63264       -0.31536
N          1.94128        1.58722       -1.60699
N          1.27958        2.88456        1.20338
O          2.30061        3.24352        0.68242
O          0.84182        1.67428        0.88141
Rh        -0.03023       -1.00231       -0.58120
Cl         0.71811       -1.50608        1.63579
C         -2.44986        3.87693       -1.28433
C         -1.73640        2.72220       -0.59276
C         -2.65627        1.52166       -0.42276
P         -1.77114        0.10474        0.36733
N         -1.67166        0.58548        1.94373
N         -3.29624       -0.88987        0.39475
O         -3.79252       -1.10561        1.47974
O         -3.75063       -1.23089       -0.67165
C          0.20422       -3.15636       -1.18142
C         -1.10424       -2.81904       -0.71633
H          5.77240       -1.80869       -0.38170
H          5.33493       -1.18644        1.21008
H          5.86728       -0.07746       -0.05558
H          3.82428       -0.62629       -1.39183
H          3.30834       -1.74784       -0.12244
H          3.75363        1.23695        0.34405
H          3.02827        0.06624        1.47552
H          2.57421        2.36384       -1.46806
H          1.24237        1.75271       -2.31380
H          1.04795       -1.90464       -1.20603
H         -0.45231       -0.59123       -1.97976
H         -2.79530        3.57771       -2.27143
H         -1.77987        4.72589       -1.39549
H         -3.31102        4.19519       -0.70161
H         -1.38007        3.04134        0.38870
H         -0.86916        2.41620       -1.18534
H         -3.02660        1.18135       -1.39350
H         -3.50853        1.78822        0.21142
H         -0.86369        0.18402        2.41559
H         -2.52205        0.44053        2.48407
H          0.31615       -3.40838       -2.23175
H          0.82733       -3.75415       -0.52101
H         -1.38994       -3.19269        0.26496
H         -1.91666       -2.81304       -1.43748
