48
681.log
C         -4.62473        2.39717        0.76480
C         -3.54720        1.37359        1.09413
C         -3.35274        0.37057        0.00366
O         -4.05377        0.23415       -0.96607
P         -1.80542       -0.68019        0.11517
C         -1.82594       -1.20571        1.87262
C         -2.46974       -2.18187       -0.75299
C         -3.58541       -2.70911       -0.02717
N         -4.46006       -3.10529        0.59407
Rh        -0.05267        0.42703       -0.84238
Cl        -0.06116        1.72375        1.18244
C          4.45552        2.16217        1.53871
C          3.32695        1.14081        1.52582
C          3.25535        0.37909        0.24415
O          4.04242        0.44537       -0.66458
P          1.73958       -0.69951        0.00344
C          1.65498       -1.59075        1.60463
C          2.53416       -1.96939       -1.09368
C          3.62751       -2.59256       -0.41113
N          4.47909       -3.07680        0.17900
C         -0.04076        2.30834       -2.06996
C          1.26268        1.81392       -1.77619
H         -4.74988        3.09121        1.59153
H         -5.57200        1.89836        0.57493
H         -4.35377        2.95875       -0.12598
H         -2.57837        1.85194        1.28320
H         -3.81036        0.82587        2.00386
H         -1.43292       -0.39309        2.48211
H         -2.84360       -1.45171        2.17648
H         -1.19627       -2.08562        1.99741
H         -2.78837       -1.85736       -1.74891
H         -1.67840       -2.93126       -0.84576
H         -1.11834        1.32584       -1.48528
H         -0.07651       -0.43896       -2.08400
H          5.41192        1.66880        1.38305
H          4.31775        2.89011        0.74282
H          4.47830        2.68562        2.49070
H          3.45513        0.42138        2.33944
H          2.34930        1.61684        1.67746
H          2.64960       -1.90840        1.91828
H          1.21416       -0.93136        2.35101
H          1.02277       -2.47114        1.48407
H          1.78744       -2.71237       -1.38780
H          2.89804       -1.44420       -1.98249
H         -0.38831        2.25480       -3.09710
H         -0.37039        3.19826       -1.54048
H          1.85183        2.37024       -1.05201
H          1.85272        1.40364       -2.59070
