32
69.log
C         -2.42314        0.72621        1.85673
P         -1.63632       -0.08159        0.41028
Cl        -2.92949       -1.53555        0.07410
C         -2.12783        1.09767       -0.94555
C         -3.55363        1.22654       -0.98058
N         -4.69278        1.32334       -0.98632
Rh         0.50760       -0.88729        0.47373
Cl         0.06542       -1.32540       -1.83753
C          1.40195        1.73278       -1.80909
P          1.72322        0.91285       -0.19976
Cl         3.68240        0.64661       -0.35340
C          1.76850        2.42900        0.90342
C          0.44554        2.95605        0.95351
N         -0.63357        3.33818        0.94340
C          1.18973       -3.02551        0.73871
C          2.24131       -2.12824        0.42249
H         -1.93046        1.67566        2.05286
H         -3.48173        0.89175        1.65747
H         -2.30746        0.07554        2.72182
H         -1.67824        2.07167       -0.73499
H         -1.75562        0.69110       -1.89174
H         -0.16674       -2.18100        0.91733
H          0.72203       -0.55363        1.94231
H          0.45929        2.27458       -1.76623
H          1.32760        0.95819       -2.57208
H          2.21490        2.41739       -2.05076
H          2.46490        3.16808        0.49758
H          2.08787        2.12053        1.90190
H          1.16066       -3.45820        1.73377
H          0.83017       -3.68572       -0.04523
H          2.65020       -2.17179       -0.58388
H          2.97555       -1.90872        1.19292
