44
691.log
C          4.55097       -1.12773       -0.85995
C          3.72838       -0.37885        0.18268
N          2.35668       -0.13170       -0.22707
P          1.07122       -1.10618        0.24827
C          1.55770       -2.87449        0.04445
N          1.31170       -1.02320        1.91029
Rh        -0.95119       -0.50793       -0.62133
Cl        -1.82354       -1.66279        1.31231
C          2.14783        3.73947       -0.69004
C          0.79796        3.04451       -0.78712
N          0.45708        2.43972        0.49476
P         -0.89808        1.42926        0.55705
C         -2.21726        2.68540        0.27895
N         -0.88344        1.17310        2.21376
C         -2.46385       -1.57012       -1.86552
C         -2.89163       -0.28139       -1.38764
H          4.10954       -2.09706       -1.07587
H          4.59657       -0.55674       -1.78587
H          5.56506       -1.27891       -0.49845
H          3.68879       -0.93813        1.11897
H          4.20517        0.58869        0.38610
H          2.27818        0.16997       -1.19022
H          0.75348       -3.49336        0.43876
H          2.47322       -3.07235        0.60005
H          1.69093       -3.10282       -1.01212
H          0.68400       -1.68829        2.35722
H          1.06759       -0.09778        2.26049
H         -1.05243       -1.82394       -1.42782
H         -0.36060        0.18518       -1.83343
H          2.93171        3.01401       -0.48255
H          2.13416        4.47267        0.11250
H          2.37975        4.24537       -1.62362
H          0.02096        3.77474       -1.02594
H          0.81962        2.29857       -1.59500
H          1.25109        1.88900        0.82334
H         -1.98317        3.57137        0.86921
H         -2.28335        2.94420       -0.77415
H         -3.17078        2.26381        0.59379
H         -1.40476        0.32428        2.43748
H         -1.21385        1.96491        2.75407
H         -2.30905       -1.68139       -2.93550
H         -2.92729       -2.44252       -1.41144
H         -3.65734       -0.28067       -0.61507
H         -3.03515        0.49885       -2.13113
