46
696.log
C          1.13408        0.12672        2.88332
P          1.82723       -0.18980        1.20292
C          2.78788       -1.68240        1.65889
C          3.11604        1.17813        1.26272
O          3.39489        1.74987       -0.00398
C          3.61202        0.85476       -0.97911
N          3.92894        1.45435       -2.14835
O          3.58041       -0.34059       -0.80556
Rh         0.28353       -0.46748       -0.52302
Cl        -0.57289       -2.07091        1.02982
C         -0.67217        2.69285        0.58131
P         -1.27009        1.07353       -0.06532
C         -2.27625        1.73975       -1.44608
C         -2.49216        0.62735        1.28452
O         -3.85445        0.85480        0.97386
C         -4.34336        0.03767        0.01606
N         -5.67443        0.23859       -0.15335
O         -3.67521       -0.72544       -0.62796
C          0.50198       -2.23722       -2.00555
C         -0.71675       -1.39226       -2.07396
H          0.56641        1.05412        2.90880
H          0.46165       -0.69563        3.11613
H          1.93544        0.16870        3.62141
H          2.05897       -2.45757        1.89357
H          3.40247       -1.47921        2.53611
H          3.40954       -2.00475        0.82845
H          2.73843        2.00831        1.86335
H          4.04432        0.79355        1.70536
H          3.92377        0.88640       -2.97757
H          3.76646        2.44163       -2.24166
H          1.19684       -1.74124       -1.16064
H          0.87873        0.53696       -1.49372
H          0.00310        3.12329       -0.15518
H         -0.12151        2.55226        1.50789
H         -1.51145        3.36706        0.75125
H         -1.60083        2.32399       -2.06966
H         -2.69158        0.92745       -2.03457
H         -3.07444        2.37744       -1.06647
H         -2.33232       -0.43432        1.51085
H         -2.28574        1.23053        2.17151
H         -6.18161        0.77547        0.52725
H         -6.17708       -0.40560       -0.73743
H          1.12070       -2.23392       -2.90236
H          0.32863       -3.25158       -1.64800
H         -1.64193       -1.86882       -1.75700
H         -0.84815       -0.84011       -3.00426
