42
700.log
C          4.88903        1.92596       -0.21500
N          4.02584        0.84933        0.22154
C          2.78324        0.78844       -0.50869
P          1.75912       -0.57868        0.19339
C          2.97036       -1.95381        0.08729
O          1.81621       -0.20154        1.74152
Rh        -0.38907       -0.95795       -0.52164
Cl        -0.93037       -1.18063        1.82751
C         -3.82085        0.97846        1.14721
N         -3.34075        2.17860        0.49571
C         -2.65088        1.91948       -0.74531
P         -0.92122        1.26475       -0.44647
C         -0.49782        2.25149        1.02544
O         -0.13813        2.15092       -1.56069
C         -1.52090       -2.83592       -0.91685
C         -2.30330       -1.64566       -1.07705
H          5.17422        1.74536       -1.25240
H          5.78879        1.92965        0.39749
H          4.41544        2.91776       -0.15652
H          3.81928        0.94925        1.21185
H          2.99245        0.54324       -1.55580
H          2.20815        1.73161       -0.48909
H          2.60117       -2.79011        0.67935
H          3.92221       -1.60598        0.48349
H          3.08353       -2.26520       -0.94752
H          0.94767       -0.47921        2.13056
H         -0.07339       -2.46088       -0.56615
H          0.00308       -0.83463       -1.98286
H         -4.53028        0.40514        0.53108
H         -2.96589        0.34381        1.37792
H         -4.30994        1.25208        2.08067
H         -4.11831        2.81155        0.32945
H         -2.49671        2.86872       -1.26838
H         -3.19451        1.23209       -1.41796
H         -0.69968        3.29672        0.80015
H          0.55262        2.11182        1.27187
H         -1.11274        1.92607        1.85882
H          0.13972        1.61306       -2.30586
H         -1.29422       -3.41604       -1.80689
H         -1.72488       -3.45034       -0.04392
H         -3.06002       -1.45505       -0.32201
H         -2.62529       -1.39420       -2.08470
