46
703.log
C         -1.44288        3.46336       -0.60511
C         -1.07268        2.83888        0.70692
O         -1.89997        2.45296        1.49907
C          0.39909        2.68943        0.96998
P          1.12221        1.24251        0.01512
C          1.80506        2.28035       -1.36001
C          2.68591        1.01416        0.97814
Br         4.09205        0.36904       -0.17280
Rh         0.25478       -0.68973       -0.92216
Cl         1.39411       -2.09423        0.65868
C         -0.25134       -1.43081        3.79068
C         -0.48094       -0.47731        2.65674
O          0.37212        0.29520        2.28029
C         -1.81622       -0.53916        1.98030
P         -1.56977       -1.27826        0.29848
C         -1.75091       -3.05987        0.71846
C         -3.29001       -1.08018       -0.36385
Br        -3.66325        0.74950       -0.84055
C          1.16428       -1.88841       -2.57426
C         -0.07829       -2.41555       -2.13221
H         -0.83596        4.33937       -0.81589
H         -2.49871        3.72059       -0.61187
H         -1.27262        2.71944       -1.38423
H          0.55668        2.50447        2.03243
H          0.94002        3.58067        0.64992
H          0.98129        2.73100       -1.90899
H          2.45146        3.06858       -0.96981
H          2.37563        1.67096       -2.05809
H          3.02362        1.96102        1.40291
H          2.55294        0.26364        1.75349
H          1.52632       -0.54703       -1.74181
H         -0.51782        0.16468       -1.90847
H         -0.06592       -2.41501        3.36074
H          0.62804       -1.13797        4.35848
H         -1.11942       -1.49068        4.44162
H         -2.55044       -1.12166        2.54038
H         -2.16277        0.49087        1.82897
H         -0.80518       -3.43145        1.10844
H         -2.53965       -3.20174        1.45764
H         -1.99916       -3.62044       -0.18220
H         -4.04017       -1.38394        0.36866
H         -3.39744       -1.67051       -1.27535
H          1.20924       -1.42154       -3.55326
H          2.06812       -2.42163       -2.29450
H         -0.04133       -3.33843       -1.56174
H         -0.92982       -2.34047       -2.80416
