50
704.log
C         -2.59698        0.57284        3.03328
C         -3.06324        0.21213        1.63076
P         -1.77513        0.55129        0.34225
C         -1.55409        2.34709        0.60287
N         -2.81287        0.63376       -1.02051
C         -3.45396       -0.60463       -1.43526
N         -2.08345        1.25490       -2.07796
Rh        -0.04267       -0.96644        0.34100
Cl         0.03258       -1.10234       -2.07552
C          4.25504       -0.89997        0.15982
C          3.24724       -0.07440       -0.62794
P          1.72752        0.47084        0.31633
C          2.43173        0.90955        1.94985
N          1.40858        2.02505       -0.32503
C          2.31922        3.13631       -0.09053
N          0.96933        2.05466       -1.68285
C         -0.14591       -3.19389        0.33932
C          1.19183       -2.68489        0.39737
H         -2.48025        1.64749        3.14467
H         -3.31862        0.22925        3.77245
H         -1.63950        0.09762        3.24005
H         -3.30788       -0.85289        1.60282
H         -3.95381        0.78394        1.35480
H         -0.90341        2.49642        1.46129
H         -1.09577        2.79636       -0.27202
H         -2.53265        2.79202        0.77521
H         -3.95929       -1.05252       -0.58179
H         -4.19792       -0.37073       -2.20079
H         -2.73668       -1.32242       -1.85174
H         -1.53850        0.55147       -2.58968
H         -2.74587        1.68155       -2.72171
H         -1.15855       -2.02461        0.33478
H         -0.04677       -0.92567        1.85075
H          5.03576       -1.26103       -0.50860
H          3.77957       -1.75988        0.62299
H          4.72685       -0.30626        0.93929
H          3.73285        0.82958       -1.01302
H          2.88682       -0.64820       -1.48708
H          3.36028        1.46850        1.86108
H          1.69179        1.49234        2.49435
H          2.61100       -0.01506        2.49410
H          3.33590        2.96925       -0.46461
H          1.90326        3.99431       -0.61669
H          2.35791        3.36185        0.97205
H          1.55374        1.47389       -2.28586
H          0.02196        1.68161       -1.73263
H         -0.53282       -3.70154        1.21869
H         -0.46311       -3.65037       -0.59471
H          1.79928       -2.81175       -0.49438
H          1.73867       -2.84665        1.32333
