44
718.log
C         -1.55805        1.71565       -1.59040
P         -1.61067        1.09638        0.13759
C         -1.90552        2.67035        1.03420
C         -3.35305        0.40843        0.25514
N         -3.60280       -0.87681       -0.33305
N         -3.45653       -0.82026       -1.75262
Rh         0.01198       -0.33145        0.91268
Cl        -0.29432       -1.59436       -1.13322
C          2.96816        1.36737        1.54875
P          1.90166        0.74660        0.19035
C          1.82269        2.27034       -0.82861
C          3.21258       -0.23359       -0.73090
N          2.80136       -1.02151       -1.85549
N          2.09749       -0.21027       -2.80353
C         -0.16776       -2.26362        2.02038
C          1.18443       -1.89975        1.70294
H         -1.13215        0.95463       -2.23968
H         -0.94376        2.61272       -1.63762
H         -2.57111        1.93679       -1.92279
H         -2.14590        2.45258        2.07263
H         -1.00141        3.27558        1.00947
H         -2.72592        3.21882        0.57345
H         -3.58592        0.34110        1.32514
H         -4.02940        1.12844       -0.21815
H         -2.97753       -1.57750        0.07788
H         -2.48876       -1.01752       -2.02133
H         -4.04190       -1.55100       -2.14857
H         -1.11333       -1.18162        1.53940
H          0.11814        0.44728        2.20185
H          3.89842        1.76779        1.14737
H          2.43316        2.14946        2.08371
H          3.18844        0.56097        2.24454
H          1.43750        2.02795       -1.81540
H          2.82508        2.68498       -0.92963
H          1.17425        2.99617       -0.33934
H          3.68929       -0.89781       -0.00216
H          3.94728        0.50108       -1.08307
H          2.20717       -1.79487       -1.54737
H          2.28831       -0.59092       -3.72758
H          1.09066       -0.30086       -2.63964
H         -0.46049       -2.24775        3.06664
H         -0.59683       -3.09829        1.47062
H          1.68508       -2.49722        0.94445
H          1.83348       -1.63574        2.53390
