32
719.log
C          0.78873        2.58335        0.66683
P          1.31544        1.14696       -0.33295
N          2.10115        1.97724       -1.58720
C          2.83162        0.62315        0.60471
O          3.55962       -0.23660        0.18583
Rh         0.08170       -0.77288       -0.46470
Cl         0.88248       -0.60829        1.83135
C         -3.46620       -0.88265       -0.11607
P         -1.92856        0.09091        0.15237
N         -2.16486        0.68111        1.69781
C         -2.38710        1.56236       -0.84137
O         -2.37697        2.67856       -0.39147
C          0.82795       -2.87098       -0.62604
C         -0.55858       -2.77956       -0.28002
H         -0.09463        3.05043        0.23372
H          0.56489        2.25306        1.67952
H          1.61281        3.29661        0.67402
H          1.44924        2.45093       -2.20543
H          2.66667        1.33789       -2.14052
H          3.05670        1.19321        1.52466
H          1.39291       -1.46976       -0.86971
H         -0.31160       -0.71179       -1.92682
H         -4.32848       -0.27701        0.15835
H         -3.42703       -1.76405        0.52083
H         -3.52879       -1.19288       -1.15682
H         -2.19633        1.69996        1.70161
H         -1.44601        0.35344        2.34059
H         -2.61628        1.36413       -1.90511
H          1.07920       -3.27624       -1.60183
H          1.52335       -3.16769        0.15499
H         -0.83012       -3.02754        0.74377
H         -1.28219       -3.11847       -1.01615
