50
720.log
C         -2.26561        2.68986        2.19559
C         -0.83734        2.31685        1.82812
C         -0.60523        2.27541        0.35406
O         -1.37440        2.65293       -0.49406
P          1.02962        1.52900       -0.16102
N          2.02048        2.29537        0.97271
C          1.32333        2.57537       -1.64435
C          2.59587        2.19455       -2.38524
Rh         1.18923       -0.76158       -0.27857
Cl         1.53761       -0.61590        2.09525
C         -3.57361       -0.37384       -2.75166
C         -2.37315        0.23411       -2.02546
C         -2.37360       -0.19363       -0.58567
O         -3.19593        0.14778        0.22124
P         -1.01048       -1.39475       -0.11688
N         -1.50520       -2.61508       -1.19818
C         -1.72536       -2.16540        1.39558
C         -1.79441       -1.27989        2.63055
C          3.01193       -2.05419       -0.34298
C          1.78462       -2.78998       -0.23650
H         -2.96254        1.99383        1.73449
H         -2.39885        2.66417        3.27400
H         -2.49887        3.68833        1.83391
H         -0.55780        1.33525        2.22545
H         -0.12377        3.03692        2.24047
H          2.97383        2.36986        0.62479
H          2.05184        1.71193        1.81401
H          0.45090        2.44964       -2.28980
H          1.35596        3.61409       -1.30313
H          2.56352        1.14230       -2.66708
H          2.70375        2.79142       -3.28851
H          3.47654        2.35795       -1.76516
H          2.71047       -0.56249       -0.44084
H          1.03093       -0.79176       -1.78876
H         -4.49460       -0.05779       -2.26875
H         -3.52638       -1.45996       -2.72830
H         -3.58981       -0.04284       -3.78711
H         -1.43177       -0.06435       -2.49407
H         -2.45150        1.32353       -2.04737
H         -1.12002       -3.51118       -0.91029
H         -1.17141       -2.42594       -2.13942
H         -1.11019       -3.04881        1.60464
H         -2.72572       -2.49868        1.09873
H         -2.22678       -1.84058        3.45766
H         -2.41607       -0.40988        2.44069
H         -0.79942       -0.95553        2.92422
H          3.57274       -2.14364       -1.26936
H          3.64244       -2.01459        0.54117
H          1.58257       -3.26807        0.71913
H          1.49941       -3.39873       -1.09223
