34
724.log
C          3.59679        1.97022       -1.03867
C          2.19376        1.42552       -1.27690
P          1.77516       -0.02847       -0.22051
C          3.20288       -1.03997       -0.53821
N          4.08969       -1.73074       -0.75549
C          2.35488        0.53680        1.36416
N          2.74607        0.87560        2.38409
Rh        -0.24579       -1.03391       -0.31646
Cl        -0.55886       -0.55941        2.04113
C         -2.99407        1.07903       -2.40125
C         -2.07653        1.92606       -1.52909
P         -1.42062        0.88047       -0.14452
C         -2.89918        0.80724        0.83108
N         -3.87730        0.76274        1.42422
C         -0.57845        2.15074        0.76188
N          0.02662        2.97482        1.27930
C         -0.95761       -3.14560       -0.06575
C         -2.00826       -2.21199       -0.31667
H          4.35076        1.20705       -1.22521
H          3.78263        2.80718       -1.70867
H          3.70696        2.32163       -0.01438
H          1.43999        2.19628       -1.07747
H          2.06691        1.09047       -2.31338
H          0.42025       -2.41552       -0.16449
H         -0.14845       -1.15373       -1.83274
H         -2.45037        0.21876       -2.79274
H         -3.84328        0.71648       -1.82232
H         -3.37129        1.66136       -3.23878
H         -2.60864        2.78628       -1.10850
H         -1.22616        2.29528       -2.11198
H         -0.73809       -3.88173       -0.83322
H         -0.85452       -3.52188        0.94841
H         -2.66125       -1.96181        0.51614
H         -2.52296       -2.27577       -1.27208
