46
729.log
C          2.45210        1.83251        1.53036
C          2.83618        1.41391        0.11967
N          3.59208        0.18864        0.02528
Br         5.36866        0.32720        0.66932
P          1.39735        1.02793       -1.00962
C          2.30007        1.08179       -2.60306
C          0.58068        2.67479       -1.09856
Rh         0.24583       -0.93889       -0.72852
Cl         1.25106       -1.43487        1.40252
C         -2.88182        1.40975       -1.24612
C         -3.11502        0.26261       -0.27624
N         -4.06270        0.54396        0.76974
Br        -5.89135        0.54127        0.20333
P         -1.54138       -0.32222        0.57024
C         -2.25636       -1.64187        1.61542
C         -1.26910        0.94486        1.86809
C          0.82065       -2.98398       -1.43057
C         -0.45404       -2.94423       -0.79616
H          1.83775        2.73027        1.51644
H          3.35299        2.03842        2.10861
H          1.90699        1.02624        2.01693
H          3.41072        2.21275       -0.37267
H          3.12937       -0.52186        0.60809
H          1.60181        0.86203       -3.40920
H          2.74718        2.06263       -2.76171
H          3.07983        0.32201       -2.58947
H         -0.08670        2.67714       -1.95838
H         -0.00075        2.87221       -0.20220
H          1.33532        3.45139       -1.22148
H          1.45392       -1.52103       -1.46365
H         -0.45723       -0.65597       -2.03826
H         -3.79729        1.63162       -1.79471
H         -2.10447        1.13482       -1.95562
H         -2.57073        2.30746       -0.71212
H         -3.46344       -0.62030       -0.82677
H         -3.90908        1.48526        1.12666
H         -3.05016       -1.22752        2.23459
H         -2.65907       -2.43656        0.99009
H         -1.46383       -2.04366        2.24572
H         -0.39572        0.62745        2.43649
H         -1.06657        1.92145        1.43379
H         -2.12916        0.99605        2.53345
H          0.85626       -3.15484       -2.50227
H          1.63878       -3.44686       -0.88589
H         -0.52468       -3.40138        0.18613
H         -1.33354       -3.09769       -1.41612
