48
730.log
C         -5.26971       -0.61987       -0.20627
C         -3.81673       -0.45638        0.22355
C         -2.90789       -1.41457       -0.53251
P         -1.09490       -1.24713       -0.18996
O         -0.52868       -2.49677       -1.03697
N         -1.12361       -1.91990        1.36627
C          0.13478       -2.38565        1.93728
Rh        -0.21843        0.82247       -0.64110
Cl        -1.20474        1.32701        1.50017
C          3.74190       -2.78570       -1.52507
C          2.78478       -1.93255       -0.70090
C          3.10207       -0.45231       -0.83159
P          1.93900        0.63684        0.10144
O          2.69659        2.07052       -0.08880
N          2.37291        0.13403        1.66101
C          1.89696        0.88230        2.81622
C         -1.26553        2.63430       -1.45636
C          0.07323        2.88018       -1.02979
H         -5.61430       -1.63437       -0.01480
H         -5.90781        0.06805        0.34302
H         -5.38062       -0.41633       -1.26982
H         -3.73062       -0.64119        1.29512
H         -3.50018        0.57277        0.04645
H         -3.02513       -1.26931       -1.61206
H         -3.17812       -2.44948       -0.29169
H         -0.96954       -3.31692       -0.78714
H         -1.53072       -1.21612        1.97895
H          0.84614       -1.57818        2.11882
H          0.58905       -3.09989        1.25044
H         -0.08341       -2.89190        2.87830
H         -1.56806        1.14774       -1.28853
H          0.28954        0.42744       -2.01045
H          3.67341       -2.52353       -2.57827
H          4.77065       -2.63632       -1.20096
H          3.50003       -3.84033       -1.41883
H          1.76221       -2.09509       -1.04025
H          2.84399       -2.22422        0.34948
H          3.03000       -0.14700       -1.87812
H          4.12519       -0.24873       -0.49008
H          3.64100        2.04048        0.10061
H          3.36335       -0.08102        1.74188
H          2.01668        0.27276        3.71333
H          2.42845        1.82909        2.95917
H          0.83986        1.10216        2.67518
H         -1.47893        2.69118       -2.52023
H         -2.06693        3.02056       -0.83147
H          0.21300        3.43684       -0.10808
H          0.81881        3.09760       -1.78762
