38
731.log
C         -1.32280       -2.31325        0.89749
P         -1.45726       -1.11044       -0.47134
F         -1.26094       -2.17389       -1.68376
C         -3.27577       -0.93879       -0.66514
C         -3.90762       -0.03975        0.38583
O         -5.29666       -0.00170        0.13708
Rh        -0.14796        0.74701       -0.46920
Cl        -1.00574        0.91280        1.76799
C          2.00045       -0.45178        2.08938
P          1.69353       -0.31240        0.29325
F          1.79602       -1.90152       -0.05364
C          3.33416        0.17382       -0.38619
C          4.52229       -0.64111        0.12763
O          5.69175       -0.38214       -0.60679
C         -0.60430        2.90737       -0.76583
C          0.73833        2.65129       -0.33117
H         -2.04086       -3.11521        0.73333
H         -1.52178       -1.80896        1.83860
H         -0.31459       -2.72238        0.91012
H         -3.72417       -1.93502       -0.61901
H         -3.46717       -0.52567       -1.65979
H         -3.47658        0.96914        0.32517
H         -3.70356       -0.43315        1.39062
H         -5.71652        0.56178        0.79470
H         -1.32566        1.58691       -0.98829
H          0.32558        0.57744       -1.89738
H          2.71771       -1.24537        2.28508
H          1.05737       -0.66326        2.58955
H          2.36863        0.50312        2.45654
H          3.47310        1.23731       -0.17377
H          3.26083        0.05392       -1.47091
H          4.32989       -1.70804       -0.00431
H          4.69185       -0.43979        1.19471
H          5.90507        0.55602       -0.54600
H         -0.74235        3.30241       -1.76814
H         -1.28577        3.33417       -0.03476
H          0.97972        2.92260        0.69385
H          1.53614        2.86429       -1.03821
