44
733.log
C         -2.38297        2.69325        1.61282
C         -1.38255        2.85864        0.48009
P         -1.12573        1.24805       -0.36922
F         -0.20157        1.82789       -1.59486
C         -2.68080        1.10378       -1.36675
O         -3.69673        0.64618       -0.50684
C         -4.26865       -0.59206       -0.88366
Rh        -0.36430       -0.58583        0.71811
Cl        -0.89560       -1.68712       -1.33915
C          2.45781       -2.37942       -1.66758
C          2.46311       -0.86130       -1.53893
P          1.79295       -0.33638        0.08315
F          2.88127       -1.07533        1.02898
C          2.49801        1.36557        0.25532
O          3.83514        1.32069       -0.15724
C          4.52283        2.52729        0.06458
C         -1.41988       -2.21745        1.82072
C         -0.00913       -2.42572        1.66302
H         -2.00961        1.96471        2.33112
H         -3.33419        2.33467        1.22664
H         -2.54256        3.63888        2.12654
H         -1.72715        3.58785       -0.25784
H         -0.41408        3.18530        0.86758
H         -2.94656        2.08878       -1.77594
H         -2.49055        0.41069       -2.19224
H         -4.84439       -0.48915       -1.81017
H         -4.93612       -0.87750       -0.07237
H         -3.50127       -1.35867       -1.02227
H         -1.79245       -0.88236        1.22229
H         -0.05414        0.16047        2.00407
H          3.01527       -2.83325       -0.85006
H          2.91624       -2.67695       -2.60835
H          1.43777       -2.75698       -1.65053
H          3.47694       -0.46060       -1.60360
H          1.83748       -0.40591       -2.30908
H          2.41380        1.65014        1.31642
H          1.91124        2.07767       -0.34252
H          4.06085        3.35201       -0.49179
H          5.54067        2.37400       -0.28801
H          4.53905        2.78376        1.13054
H         -1.79231       -2.03120        2.82417
H         -2.07976       -2.84110        1.22299
H          0.30097       -3.19543        0.96081
H          0.61435       -2.37500        2.55105
