40
734.log
C          3.54251       -0.84906        0.89808
C          2.83864        0.49341        0.81822
O          3.78153        1.50763        0.58408
P          1.58031        0.51808       -0.57068
C          2.69368        0.42456       -2.02614
O          1.28291        2.10847       -0.55280
Rh        -0.26054       -0.84115       -0.54310
Cl         0.14101       -1.65424        1.68647
C         -3.64146        1.40084       -0.82365
C         -2.41872        1.93964       -0.10902
O         -1.48644        2.53273       -1.00740
P         -1.47158        0.58023        0.74922
C         -0.62845        1.58587        2.03947
O         -2.64387       -0.08872        1.61101
C         -0.63208       -2.92971       -1.22880
C         -1.79979       -2.26736       -0.72100
H          2.80764       -1.63674        1.04491
H          4.10474       -1.03528       -0.01333
H          4.23484       -0.85024        1.73657
H          2.29652        0.67893        1.75978
H          3.30624        2.34050        0.47447
H          2.13524        0.74681       -2.90297
H          3.03235       -0.59654       -2.17657
H          3.54501        1.08482       -1.86600
H          0.34317        2.33079       -0.69335
H          0.55438       -1.95457       -1.23470
H         -0.63952       -0.26363       -1.89747
H         -3.34610        0.58954       -1.49030
H         -4.12609        2.18370       -1.40454
H         -4.34440        1.00974       -0.09337
H         -2.69057        2.72454        0.60369
H         -1.44849        1.95493       -1.78454
H         -0.00786        0.92637        2.64371
H         -0.01538        2.37010        1.60643
H         -1.40584        2.02321        2.66597
H         -2.27177       -0.87311        2.03929
H         -0.60700       -3.16856       -2.28805
H         -0.19085       -3.70095       -0.60323
H         -2.17959       -2.61541        0.23578
H         -2.58952       -2.03959       -1.43262
