40
736.log
C         -3.36649       -0.78869        1.43793
P         -2.10294       -0.33042        0.19065
C         -2.99499       -0.66979       -1.36453
C         -2.32486        1.55504        0.27891
C         -3.68452        1.92457       -0.00108
N         -4.77465        2.19242       -0.21622
C         -1.42114        2.15160       -0.66707
N         -0.68443        2.62506       -1.40141
Rh        -0.03279       -1.25519        0.37863
Cl         0.20943       -0.81220       -1.95446
C          2.90382        0.06808        1.79493
P          1.38096        0.47005        0.85821
C          0.83484        1.94287        1.81754
C          2.15551        1.31549       -0.63734
C          3.01208        0.34520       -1.27136
N          3.73349       -0.42557       -1.70830
C          2.92346        2.45131       -0.21301
N          3.53666        3.33839        0.16747
C          0.52841       -3.39770       -0.06868
C          1.63625       -2.58147        0.28897
H         -3.01986       -0.51516        2.43371
H         -4.32267       -0.30836        1.23013
H         -3.48736       -1.87094        1.40557
H         -3.08613       -1.75162       -1.47017
H         -3.98467       -0.21215       -1.36041
H         -2.40364       -0.29652       -2.20116
H         -2.05828        1.86459        1.29865
H         -0.79148       -2.54887        0.05047
H         -0.20749       -1.52074        1.87053
H          3.49436       -0.67017        1.25415
H          2.61161       -0.34823        2.75865
H          3.50167        0.96744        1.94959
H          1.70034        2.50046        2.17423
H          0.22765        2.60308        1.20082
H          0.25279        1.59655        2.67161
H          1.35201        1.61520       -1.32542
H          0.21921       -4.17496        0.62396
H          0.42023       -3.66569       -1.11548
H          2.32456       -2.30280       -0.50399
H          2.11027       -2.77595        1.24720
