38
745.log
C         -3.38001       -0.49044        2.14287
C         -3.45088       -0.01414        0.70066
P         -1.77597        0.43220        0.05972
O         -1.60217        1.87158        0.72670
C         -2.33464        0.96164       -1.63580
Cl        -1.16853        2.08626       -2.33905
Rh        -0.12951       -1.14299        0.20719
Cl         0.21364       -1.00137       -2.16739
C          4.25603        0.80622       -0.73036
C          3.19324       -0.27706       -0.60786
P          1.60854        0.30696        0.15201
O          1.34248        1.68962       -0.59008
C          2.26683        1.05338        1.71546
Cl         0.88812        1.66946        2.63309
C         -0.20423       -3.36970        0.08222
C          1.11186       -2.84549        0.28237
H         -2.75369       -1.37754        2.21968
H         -2.94828        0.28557        2.77183
H         -4.37253       -0.73028        2.51853
H         -3.87473       -0.78859        0.05665
H         -4.06798        0.88609        0.63026
H         -0.77948        1.97662        1.23029
H         -3.28839        1.48834       -1.56937
H         -2.40687        0.10140       -2.30081
H         -1.23348       -2.20423        0.06877
H         -0.24514       -1.16793        1.71688
H          4.70792        1.03111        0.23314
H          5.04457        0.47347       -1.40226
H          3.82598        1.71871       -1.13761
H          2.91389       -0.64256       -1.59983
H          3.56043       -1.12517       -0.02679
H          0.74437        1.59203       -1.35395
H          2.91764        1.90068        1.50132
H          2.76981        0.31006        2.33221
H         -0.65626       -3.93180        0.89410
H         -0.43552       -3.76671       -0.90223
H          1.79139       -2.90245       -0.56297
H          1.58901       -3.04002        1.23954
