42
753.log
C          2.67826       -1.93398        0.20844
P          1.46442       -0.61149        0.52672
C          1.54404       -0.50258        2.34921
C          2.48165        0.90970        0.08531
Cl         4.08902        0.84135        0.82971
C          2.62795        0.94988       -1.42277
O          3.46129        0.33181       -2.01801
O          1.73635        1.71444       -2.05549
Rh        -0.50869       -0.99673       -0.58353
Cl        -0.57838       -2.79543        0.99076
C         -3.79186       -0.04512        0.33147
P         -2.00725        0.11223        0.70881
C         -2.07012       -0.16844        2.51351
C         -1.89978        1.99832        0.71899
Cl        -0.35901        2.41853        1.45168
C         -2.01296        2.47781       -0.69385
O         -3.05523        2.49289       -1.28981
O         -0.85160        2.84593       -1.24067
C         -0.87959       -2.45649       -2.24913
C         -2.07073       -1.88050       -1.73035
H          3.54522       -1.82343        0.85821
H          2.99260       -1.89697       -0.83515
H          2.18530       -2.88513        0.41020
H          2.58635       -0.54471        2.66226
H          1.00139       -1.35730        2.75010
H          1.09614        0.42458        2.70010
H          1.98475        1.80383        0.46992
H          1.05228        2.08349       -1.47186
H          0.38611       -1.79380       -1.52668
H         -0.42446        0.14867       -1.56180
H         -4.06726       -1.09213        0.44982
H         -4.38052        0.56430        1.01707
H         -3.99191        0.26477       -0.69210
H         -2.17540       -1.24347        2.65814
H         -2.92074        0.35217        2.95306
H         -1.14700        0.15027        2.99051
H         -2.70643        2.41960        1.32475
H         -0.98183        3.07862       -2.17579
H         -0.56903       -2.18343       -3.25271
H         -0.65674       -3.48496       -1.98015
H         -2.69963       -2.51813       -1.11531
H         -2.62109       -1.19294       -2.36605
