44
758.log
C         -3.04326       -2.37937        1.18072
C         -3.22417       -0.90540        1.12709
O         -4.27199       -0.33936        1.30875
P         -1.70054        0.18787        0.81947
C         -1.78553        0.92572        2.50200
C         -2.64925        1.42556       -0.18575
N         -2.91883        0.77547       -1.45626
O         -3.17755        1.45084       -2.41473
O         -2.89013       -0.44080       -1.44138
Rh         0.10875       -0.92979       -0.07810
Cl         0.32403        0.72346       -1.86745
C          1.69095        3.23225       -0.58696
C          0.90268        2.16075        0.11063
O         -0.20332        2.37000        0.57878
P          1.68264        0.55020        0.64086
C          2.14624        1.04565        2.34853
C          3.31368        0.64590       -0.24035
N          4.03982       -0.56148        0.14150
O          3.56893       -1.18520        1.06533
O          5.03912       -0.85116       -0.46248
C          0.27057       -2.64282       -1.48798
C          1.53469       -2.18047       -1.04811
H         -2.09889       -2.62348        1.66368
H         -3.00464       -2.74232        0.15411
H         -3.88176       -2.84994        1.68896
H         -1.35277        0.21115        3.20177
H         -2.82921        1.10247        2.76022
H         -1.23088        1.85757        2.53922
H         -3.60420        1.58799        0.33137
H         -2.14448        2.37893       -0.34147
H         -0.94563       -1.77278       -0.75292
H          0.13114       -1.84574        1.11757
H          1.02023        4.04243       -0.86536
H          2.44004        3.61896        0.10467
H          2.18527        2.85567       -1.47625
H          2.56006        0.19146        2.87863
H          1.23481        1.36515        2.85190
H          2.86316        1.86740        2.34108
H          3.89986        1.51761        0.06692
H          3.19200        0.67293       -1.32782
H         -0.08087       -3.60457       -1.12955
H         -0.03809       -2.40758       -2.50247
H          2.14360       -1.64262       -1.77051
H          2.10058       -2.80927       -0.36754
