48
761.log
C         -1.73623       -3.19290       -0.22807
P         -1.17690       -1.44559       -0.11635
C         -1.99476       -0.78126       -1.60805
C         -2.36088       -0.95141        1.25396
C         -2.56884        0.52045        1.34964
O         -1.83045        1.24056        1.97858
C         -3.75428        1.11740        0.60285
C         -4.72430        0.17245        0.13659
N         -5.49317       -0.59445       -0.22471
Rh         1.10919       -1.30560        0.07936
Cl         1.28486       -0.37146       -2.12306
C          3.25033        1.32176        1.09771
P          1.51550        0.72759        1.12757
C          1.20904        0.73732        2.93217
C          0.68060        2.34147        0.69687
C          1.21056        2.97593       -0.55533
O          2.20219        3.66015       -0.56605
C          0.43372        2.68508       -1.82282
C         -0.97573        2.71611       -1.64161
N         -2.11081        2.71382       -1.47214
C          2.63852       -2.81791       -0.57621
C          3.20854       -1.67123        0.03725
H         -1.42855       -3.73302        0.66602
H         -2.81900       -3.24518       -0.33810
H         -1.26674       -3.65563       -1.09532
H         -3.04994       -1.05330       -1.61726
H         -1.49148       -1.21166       -2.47359
H         -1.88309        0.29878       -1.66386
H         -3.30026       -1.47604        1.07563
H         -1.88809       -1.31108        2.17178
H         -3.35134        1.68173       -0.25461
H         -4.23887        1.85143        1.25438
H          1.03669       -2.67475       -0.58859
H          1.00807       -1.95501        1.44209
H          3.30942        2.29997        1.57356
H          3.88553        0.61534        1.62835
H          3.59620        1.41283        0.06962
H          1.62987        1.63349        3.38531
H          0.13669        0.70662        3.10830
H          1.66888       -0.14635        3.37037
H         -0.39221        2.16786        0.64010
H          0.89756        3.00111        1.54168
H          0.74181        3.35981       -2.62415
H          0.71495        1.64272       -2.11072
H          2.66659       -3.75999       -0.03723
H          2.74566       -2.92331       -1.65197
H          3.73195       -0.97254       -0.60795
H          3.66118       -1.79783        1.01665
