50
774.log
C          1.67122       -3.33128       -1.33346
C          2.48714       -2.09451       -0.97958
C          2.34134       -0.89327       -1.89421
O          2.82300        0.17080       -1.48622
C          2.28250       -1.63098        0.44051
O          2.07327       -2.38316        1.35923
P          2.26523        0.21301        0.79102
C          3.99977        0.81751        0.86547
C          2.08389        0.06180        2.62829
Rh         0.41995        1.30229       -0.07138
Cl         0.15402       -0.47869       -1.73017
C         -3.67137       -0.24036       -2.06069
C         -3.20168       -0.81117       -0.72502
C         -4.31839       -1.54029       -0.01947
O         -4.16949       -2.42317        0.77790
C         -2.82951        0.30241        0.25219
O         -3.55004        1.24459        0.45509
P         -1.18758        0.19339        1.13042
C         -1.74609        0.86126        2.73908
C         -1.09429       -1.60725        1.47401
C          0.24409        2.88903       -1.62634
C         -1.01432        2.51344       -1.07521
H          0.61863       -3.07579       -1.42464
H          1.78483       -4.08104       -0.55395
H          2.00733       -3.74658       -2.28016
H          3.55773       -2.34662       -1.04265
H          2.26507       -1.10383       -2.96717
H          4.62911        0.02837        1.27740
H          4.01291        1.67382        1.53808
H          4.35704        1.11035       -0.11556
H          2.88883       -0.54256        3.04610
H          1.13249       -0.38916        2.89536
H          2.12340        1.06472        3.05184
H          1.42367        2.08322       -0.90903
H          0.57482        2.34473        1.00095
H         -2.81695        0.12251       -2.62666
H         -4.36541        0.58147       -1.89799
H         -4.16350       -1.01255       -2.64757
H         -2.34358       -1.47394       -0.85751
H         -5.32143       -1.15603       -0.27655
H         -2.16764        1.85028        2.56548
H         -0.89543        0.95098        3.41182
H         -2.50259        0.20997        3.17626
H         -0.41485       -1.77494        2.30797
H         -0.69205       -2.13788        0.61275
H         -2.07951       -2.00129        1.72258
H          0.63345        3.87332       -1.38515
H          0.46971        2.56902       -2.64012
H         -1.68934        1.94813       -1.71051
H         -1.52720        3.21957       -0.42926
