50
775.log
C          1.67040       -3.33177       -1.33222
C          2.48669       -2.09511       -0.97882
C          2.34105       -0.89412       -1.89383
O          2.82304        0.16997       -1.48614
C          2.28217       -1.63101        0.44109
O          2.07279       -2.38277        1.36013
P          2.26544        0.21313        0.79078
C          3.99990        0.81782        0.86502
C          2.08412        0.06271        2.62815
Rh         0.42000        1.30207       -0.07176
Cl         0.15421       -0.47927       -1.73012
C         -3.66980       -0.24164       -2.06152
C         -3.20108       -0.81178       -0.72526
C         -4.31814       -1.54084       -0.02017
O         -4.16951       -2.42084        0.78045
C         -2.82948        0.30228        0.25170
O         -3.55030        1.24435        0.45402
P         -1.18780        0.19396        1.13048
C         -1.74662        0.86337        2.73839
C         -1.09495       -1.60636        1.47586
C          0.24421        2.88886       -1.62672
C         -1.01424        2.51312       -1.07580
H          0.61776       -3.07621       -1.42258
H          1.78454       -4.08164       -0.55289
H          2.00578       -3.74698       -2.27922
H          3.55721       -2.34751       -1.04190
H          2.26514       -1.10504       -2.96675
H          4.62922        0.02916        1.27789
H          4.01274        1.67479        1.53680
H          4.35736        1.10974       -0.11622
H          2.88994       -0.54015        3.04643
H          1.13343       -0.38961        2.89533
H          2.12203        1.06594        3.05113
H          1.42376        2.08264       -0.90967
H          0.57504        2.34481        1.00039
H         -2.81518        0.12234       -2.62647
H         -4.36512        0.57928       -1.89975
H         -4.16015       -1.01453       -2.64897
H         -2.34279       -1.47453       -0.85688
H         -5.32135       -1.15955       -0.28101
H         -2.16527        1.85353        2.56438
H         -0.89654        0.95066        3.41217
H         -2.50544        0.21410        3.17455
H         -0.41642       -1.77325        2.31072
H         -0.69183       -2.13786        0.61554
H         -2.08045       -2.00009        1.72379
H          0.63353        3.87310       -1.38523
H          0.46993        2.56911       -2.64055
H         -1.68908        1.94783       -1.71130
H         -1.52733        3.21912       -0.42987
