36
780.log
C         -3.77626        0.04533        0.46213
O         -3.04209       -0.83150       -0.38230
P         -1.47809       -0.80781       -0.65045
C         -1.53676       -2.13778       -1.89974
N         -0.87649       -1.84103        0.73005
O         -1.69830       -2.49538        1.31682
O          0.32608       -1.88056        0.92107
Rh        -0.25522        1.10286       -0.51772
Cl        -1.01436        0.86003        1.76260
C          2.03517       -0.42458        2.60192
O          2.50769        0.07923        1.35293
P          1.76907        0.15944       -0.03822
C          3.18348        0.94822       -0.89969
N          2.11138       -1.46283       -0.79319
O          1.42727       -1.76707       -1.74467
O          3.02844       -2.09576       -0.34310
C         -0.84373        3.25870       -0.46784
C          0.53428        3.01976       -0.15497
H         -3.48788        1.08658        0.29955
H         -4.82489       -0.09125        0.20042
H         -3.61763       -0.21007        1.50986
H         -1.98418       -1.71609       -2.79714
H         -0.53760       -2.49006       -2.13623
H         -2.16501       -2.94308       -1.51998
H         -1.49589        1.95080       -0.84882
H          0.13611        1.16346       -1.97858
H          1.02213       -0.08367        2.81083
H          2.71898       -0.03357        3.35461
H          2.06238       -1.51279        2.59987
H          3.31258        1.95592       -0.51354
H          2.98170        0.99345       -1.96722
H          4.08529        0.36950       -0.70241
H         -1.06500        3.78632       -1.39094
H         -1.49853        3.53206        0.35582
H          0.83627        3.14423        0.88246
H          1.27191        3.37216       -0.87027
