48
79.log
C          5.23911       -0.00357        0.30161
C          3.73505       -0.22868        0.26466
N          3.09442        0.87089       -0.44974
P          1.40959        1.04164       -0.38302
C          1.33850        2.48838       -1.51321
C          1.28115        1.87241        1.29210
O          0.28247        1.32998        2.09819
Rh         0.06737       -0.80650       -0.63128
Cl         0.94165       -1.52864        1.51195
C         -2.41196        3.82154       -0.56873
C         -2.36185        2.31992       -0.80761
N         -2.24883        1.61220        0.46327
P         -1.84564       -0.02916        0.39993
C         -2.21073       -0.48014        2.13206
C         -3.43189       -0.63304       -0.38721
O         -3.80833       -1.90052        0.08114
C          0.56718       -2.82982       -1.42879
C         -0.76769       -2.73542       -0.91749
H          5.65186       -0.00747       -0.70571
H          5.71915       -0.79033        0.87676
H          5.46271        0.95531        0.76223
H          3.51626       -1.20139       -0.19876
H          3.33194       -0.25184        1.27912
H          3.39856        0.86766       -1.42178
H          1.39068        2.14665       -2.54555
H          0.40930        3.03278       -1.37496
H          2.18407        3.13901       -1.29340
H          2.27145        1.80546        1.76681
H          1.03979        2.93061        1.14097
H          0.47758        0.36670        2.18351
H          1.27367       -1.44250       -1.34499
H         -0.46954       -0.33292       -1.96786
H         -1.49219        4.16679       -0.09915
H         -3.24256        4.06546        0.08846
H         -2.54238        4.35052       -1.50941
H         -1.53356        2.06788       -1.48685
H         -3.28845        1.99255       -1.28721
H         -1.57424        2.07497        1.07142
H         -3.29017       -0.45987        2.26906
H         -1.82836       -1.47665        2.34302
H         -1.73191        0.23401        2.79575
H         -4.22619        0.05604       -0.08414
H         -3.34332       -0.62329       -1.48392
H         -3.08209       -2.51296       -0.08376
H          0.68952       -2.96275       -2.49984
H          1.28727       -3.39161       -0.83999
H         -0.96139       -3.26142        0.01512
H         -1.56985       -2.81241       -1.64794
