46
797.log
C          4.31148       -0.24168        1.56369
C          3.79472        0.76909        0.58530
O          4.17588        0.84712       -0.55708
C          2.74640        1.70680        1.16179
C          1.95271        2.41667        0.06985
P          0.37462        1.57398       -0.38651
C         -0.14582        2.70616       -1.72178
F         -0.47505        2.22136        0.85212
Rh         0.43573       -0.65479       -0.81085
Cl         0.99976       -1.16515        1.49077
C         -4.40089        2.21602       -0.19157
C         -3.28016        1.27189        0.14442
O         -2.32569        1.11924       -0.58020
C         -3.41881        0.48635        1.42060
C         -2.14371       -0.29116        1.70576
P         -1.55139       -1.26224        0.23440
C         -1.73890       -2.94836        0.95692
F         -2.97519       -1.39245       -0.57804
C          1.73257       -2.24801       -1.65348
C          0.52271       -2.80512       -1.27213
H          4.57066        0.23146        2.50713
H          5.16872       -0.77081        1.15664
H          3.50328       -0.94820        1.75961
H          2.09230        1.13851        1.82584
H          3.28396        2.43690        1.77374
H          2.56821        2.46984       -0.83196
H          1.67776        3.42965        0.37568
H         -1.12226        2.41759       -2.09386
H         -0.16869        3.72680       -1.34503
H          0.58253        2.61601       -2.52314
H          1.76439       -0.16750       -1.31858
H         -0.10750       -0.38374       -2.18820
H         -3.98999        3.19354       -0.43513
H         -4.90754        1.84677       -1.08206
H         -5.11623        2.30571        0.61930
H         -4.27058       -0.18890        1.29497
H         -3.65216        1.16497        2.24417
H         -2.29058       -0.98380        2.53575
H         -1.34577        0.39594        1.98372
H         -0.94429       -3.14845        1.66911
H         -2.70582       -2.99296        1.45806
H         -1.72627       -3.69390        0.16500
H          1.94715       -2.07015       -2.70082
H          2.60469       -2.37752       -1.02087
H          0.49791       -3.39373       -0.36207
H         -0.20938       -3.08012       -2.02529
