48
801.log
C          2.81798        1.60446       -1.86167
C          3.31234        1.80807       -0.42567
C          3.61932        3.27397       -0.13751
C          2.25484        1.27763        0.49569
O          1.60091        1.96389        1.24889
P          1.80827       -0.53560        0.42599
C          3.39503       -1.39387        0.08084
O          1.67876       -0.74486        1.99282
Rh        -0.02642       -1.16805       -0.72793
Cl         0.09066       -2.95368        0.91881
C         -1.16187        2.92346       -0.74107
C         -2.37004        2.64096        0.15513
C         -3.56603        3.50595       -0.22333
C         -2.69616        1.17416        0.03532
O         -3.68220        0.73373       -0.49930
P         -1.44509       -0.02521        0.75254
C         -2.63015       -1.00595        1.74966
O         -0.82841        0.82416        1.96542
C         -1.08865       -2.58144       -2.11485
C         -2.03272       -1.75420       -1.54916
H          3.61211        1.84551       -2.56391
H          1.97054        2.25710       -2.05926
H          2.49982        0.57568       -2.02413
H          4.21403        1.20374       -0.27713
H          3.99568        3.39204        0.87555
H          2.71664        3.87180       -0.23605
H          4.36509        3.64530       -0.83531
H          4.13887       -1.07173        0.80954
H          3.19692       -2.45749        0.22024
H          3.74218       -1.23110       -0.93447
H          1.11808       -1.55499        2.10266
H          0.98420       -1.84001       -1.62425
H         -0.01352       -0.04432       -1.73497
H         -0.85473        3.96141       -0.63451
H         -1.41602        2.73867       -1.78310
H         -0.32272        2.28372       -0.47159
H         -2.08560        2.82891        1.19659
H         -3.29583        4.55857       -0.18918
H         -3.90274        3.25946       -1.22754
H         -4.39204        3.33250        0.46190
H         -2.20420       -1.98696        1.95641
H         -2.78742       -0.47085        2.68448
H         -3.57199       -1.11191        1.21536
H          0.05374        1.22576        1.82969
H         -0.77157       -2.43255       -3.14061
H         -0.94826       -3.58588       -1.72746
H         -2.65951       -2.11767       -0.74379
H         -2.45775       -0.94235       -2.12881
