46
802.log
C          3.43127       -1.64495        1.43501
C          3.45998       -0.26898        0.79010
P          1.80526        0.48788        0.46285
C          1.27364        0.90339        2.17325
N          2.45876        1.94722       -0.13777
C          1.66937        2.93110       -0.76131
F          0.99153        3.73106        0.16110
Rh         0.35158       -0.69278       -0.85916
Cl         0.18508       -2.20239        1.00781
C         -2.02319        2.52157       -1.76191
C         -1.90381        2.07744       -0.30997
P         -1.61714        0.25859       -0.16359
C         -3.18157       -0.36688       -0.90882
N         -1.81865        0.05304        1.50752
C         -3.03497        0.22598        2.20342
F         -3.95709       -0.78818        1.96672
C          0.73083       -2.46192       -2.16834
C         -0.65009       -2.10482       -2.06604
H          2.88797       -2.35279        0.81461
H          2.94125       -1.61026        2.40487
H          4.44572       -2.01627        1.57242
H          4.01528        0.42819        1.42810
H          3.96584       -0.31532       -0.17982
H          2.08265        1.41026        2.70031
H          1.00857       -0.01561        2.68921
H          0.39518        1.54585        2.13020
H          3.16222        2.34871        0.47487
H          2.28272        3.62670       -1.34701
H          0.90507        2.45356       -1.38051
H          1.59011       -1.43758       -1.37781
H          0.46085        0.25561       -2.03470
H         -1.93125        3.60304       -1.83875
H         -1.23960        2.06361       -2.36424
H         -2.98378        2.22985       -2.17983
H         -2.81277        2.33908        0.23795
H         -1.06782        2.58014        0.17853
H         -3.30013       -1.41551       -0.64045
H         -4.03104        0.19684       -0.52400
H         -3.13881       -0.27859       -1.99121
H         -1.31008       -0.79155        1.78933
H         -3.53776        1.15470        1.91255
H         -2.85934        0.21258        3.28642
H          1.22297       -2.32044       -3.12645
H          1.05412       -3.35738       -1.64431
H         -1.28510       -2.76666       -1.48372
H         -1.13154       -1.71123       -2.95724
