46
803.log
C          0.97643        0.74432        3.01546
C          1.57926        1.41789        1.79538
P          1.69412        0.36816        0.28514
O          2.64252        1.39451       -0.64711
C          1.95533        2.36695       -1.26950
C          2.75146        3.07151       -2.31701
O          0.81406        2.58999       -0.96389
N          3.19089       -0.58930        0.66457
O          3.78871       -0.34875        1.68189
O          3.52576       -1.36246       -0.19948
Rh         0.22822       -1.01596       -0.74869
Cl         0.83282       -2.00019        1.37868
C         -2.77880       -2.33630        1.51903
C         -2.66449       -0.81998        1.56012
P         -1.65039       -0.14852        0.16944
O         -1.41311        1.41142        0.55921
C         -2.42849        2.31787        0.71690
C         -1.89262        3.70657        0.73834
O         -3.56469        1.96688        0.82760
N         -2.95594        0.05432       -1.06619
O         -2.90433        1.04066       -1.75726
O         -3.72997       -0.86759       -1.17700
C          0.58590       -2.90001       -1.89336
C         -0.77983       -2.70508       -1.54153
H          1.58917       -0.09473        3.33450
H         -0.02347        0.37597        2.79536
H          0.91305        1.45861        3.83420
H          0.98387        2.28533        1.50231
H          2.60695        1.73827        2.00365
H          2.25057        3.98730       -2.61531
H          2.83953        2.41161       -3.17890
H          3.75288        3.27815       -1.94863
H          1.43423       -1.64272       -1.43647
H         -0.01110       -0.23314       -2.01836
H         -3.28284       -2.65567        0.61030
H         -1.79193       -2.79144        1.56885
H         -3.35660       -2.68179        2.37319
H         -2.15719       -0.50721        2.47779
H         -3.65212       -0.35261        1.52691
H         -1.43952        3.89984        1.70950
H         -1.12289        3.79256       -0.02551
H         -2.69732        4.41543        0.56917
H          0.86122       -2.82781       -2.94067
H          1.15236       -3.64290       -1.33894
H         -1.18571       -3.33493       -0.75537
H         -1.48799       -2.48640       -2.33604
