42
809.log
C          3.64378        1.13410        0.94700
P          2.37382        0.26698       -0.05617
C          3.31271       -0.12499       -1.57641
C          2.53408       -1.41674        0.74718
O          2.00514       -2.42359       -0.07314
N          0.71924       -2.91139        0.23431
O          0.37306       -3.77144       -0.48422
O          0.21681       -2.48294        1.22317
Rh         0.36530        1.29105       -0.43918
Cl        -0.32599       -0.82520       -1.35649
C         -1.79140        2.29808        2.13281
P         -0.78019        0.90402        1.50586
C          0.03801        0.35652        3.05638
C         -2.10585       -0.39247        1.42804
O         -2.90106       -0.05421        0.32060
N         -3.22015       -1.09309       -0.59147
O         -3.01918       -2.19607       -0.23020
O         -3.71991       -0.67697       -1.57468
C         -0.38255        2.27338       -2.31983
C         -1.33818        2.26808       -1.26524
H          4.58639        0.58932        0.94586
H          3.28706        1.25177        1.96804
H          3.79396        2.12364        0.52117
H          4.24279       -0.63977       -1.33717
H          2.69211       -0.76705       -2.20147
H          3.52562        0.79873       -2.11347
H          2.05222       -1.43044        1.73086
H          3.59864       -1.64948        0.86212
H          0.96768        1.65236       -1.79769
H          0.86369        2.60766        0.12598
H         -2.25377        2.03700        3.08374
H         -2.56429        2.52813        1.40260
H         -1.15311        3.16972        2.26040
H          0.89797        0.99187        3.25748
H         -0.66091        0.41706        3.88892
H          0.36185       -0.67458        2.93987
H         -2.71695       -0.39812        2.33892
H         -1.65751       -1.38221        1.28697
H          0.04808        3.22503       -2.61738
H         -0.54297        1.58597       -3.14561
H         -2.19038        1.60504       -1.37132
H         -1.57522        3.22202       -0.80276
