48
813.log
C          1.35845        3.76491        0.17843
C          2.36170        2.76243       -0.36983
O          2.48812        1.65681        0.51703
P          1.96574        0.18496        0.06685
N          3.21321       -0.27748       -0.96534
C          2.36048       -0.57089        1.72796
C          3.13452       -1.87965        1.65640
Rh        -0.05636       -0.12991       -0.94029
Cl         0.57018       -2.39125       -0.45947
C         -4.59414        1.44367       -0.25185
C         -3.18210        1.69041        0.25508
O         -2.75209        0.55308        0.99015
P         -1.21243        0.07561        1.00141
N         -0.54207        1.23948        2.02460
C         -1.54096       -1.38111        2.08579
C         -2.41400       -2.42017        1.40082
C         -0.59089       -0.77705       -3.00445
C         -1.70373       -0.74412       -2.09511
H          1.29542        4.62372       -0.48380
H          1.66339        4.09898        1.16703
H          0.37924        3.29693        0.25272
H          2.04703        2.41053       -1.35858
H          3.35442        3.21555       -0.45660
H          4.13109       -0.24968       -0.53109
H          3.03583       -1.18786       -1.37321
H          2.93158        0.18859        2.27056
H          1.42077       -0.74378        2.25498
H          2.58823       -2.60643        1.05912
H          3.26434       -2.28496        2.65870
H          4.12261       -1.73745        1.22249
H          0.64446       -0.26639       -2.30619
H         -0.32812        1.32574       -1.25359
H         -4.60901        0.57338       -0.90304
H         -4.94639        2.30968       -0.80540
H         -5.26377        1.25928        0.58430
H         -3.15921        2.56301        0.91722
H         -2.49557        1.87462       -0.57969
H         -0.83469        1.19082        2.99368
H          0.45446        1.37737        1.93281
H         -2.02888       -0.99309        2.98619
H         -0.58278       -1.82708        2.36099
H         -3.33757       -1.96605        1.04980
H         -2.65715       -3.22587        2.09144
H         -1.88223       -2.84538        0.55320
H         -0.59127       -0.06382       -3.82466
H         -0.21593       -1.75686       -3.28985
H         -2.10194       -1.70287       -1.77302
H         -2.47701       -0.00554       -2.28813
