46
819.log
C         -3.49624       -2.28729        0.64570
C         -2.99141       -0.89083        0.46560
O         -3.06417       -0.00046        1.26802
O         -2.45109       -0.69121       -0.75662
P         -1.45246        0.59685       -0.94028
C         -1.27491        0.42000       -2.75388
C         -2.65335        2.04282       -0.92865
N         -2.05896        3.30076       -1.30755
Rh         0.21998        0.79895        0.63203
Cl        -0.23554       -1.40890        1.46195
C          0.90352       -3.81335       -0.22995
C          0.92595       -2.39214       -0.69811
O          0.14132       -1.87812       -1.45861
O          2.07021       -1.74206       -0.36747
P          1.97748       -0.10735       -0.53260
C          2.30573        0.14726       -2.31921
C          3.68837        0.20531        0.08059
N          4.00296        1.58592       -0.23185
C          0.12235        1.50023        2.74458
C          1.43214        1.10917        2.35140
H         -4.30938       -2.29959        1.36538
H         -2.67148       -2.88127        1.03669
H         -3.80481       -2.70181       -0.30918
H         -2.25662        0.52156       -3.21523
H         -0.60540        1.19124       -3.12705
H         -0.87095       -0.56288       -2.97034
H         -3.47100        1.80757       -1.62003
H         -3.06890        2.14652        0.07645
H         -1.65031        3.24167       -2.23474
H         -1.31547        3.53879       -0.65696
H         -0.89891        1.36064        1.49503
H          0.54698        2.18861        0.10523
H          1.61868       -4.38126       -0.82413
H         -0.09169       -4.22492       -0.36431
H          1.19517       -3.86365        0.81426
H          1.43331       -0.10370       -2.91305
H          3.14737       -0.47891       -2.61148
H          2.56391        1.19375       -2.45607
H          3.74901       -0.05243        1.14979
H          4.37423       -0.45184       -0.46542
H          3.28034        2.19392        0.14440
H          4.88821        1.86063        0.18079
H         -0.06860        2.55441        2.92129
H         -0.43183        0.83596        3.40094
H          1.81320        0.17377        2.75260
H          2.18370        1.89036        2.26860
