40
824.log
C          1.99624       -0.02496        1.96902
P          1.53392       -0.01100        0.20413
C          1.99457        1.73278       -0.25978
F          2.21837        1.75836       -1.61330
C          3.02251       -0.88004       -0.53859
C          4.27533       -0.10780       -0.31650
O          4.90313       -0.10000        0.70963
Rh        -0.40435       -0.99454       -0.53632
Cl        -0.82096       -1.89154        1.64928
C         -3.59574       -0.11479        0.69095
P         -1.94429        0.50100        0.19723
C         -1.54806        1.38562        1.77605
F         -0.34609        2.03596        1.65247
C         -2.48227        1.94385       -0.85137
C         -1.28907        2.78102       -1.17076
O         -1.09349        3.88375       -0.74089
C         -0.75069       -3.01664       -1.42850
C         -1.93940       -2.23725       -1.31073
H          1.66073       -0.96696        2.40148
H          1.50363        0.79427        2.48633
H          3.07751        0.06838        2.07099
H          2.92313        2.03413        0.23862
H          1.20185        2.45113       -0.04179
H          2.82378       -1.01672       -1.60222
H          3.06393       -1.84470       -0.02463
H          4.59205        0.50641       -1.17970
H          0.48086       -2.17646       -0.93303
H         -0.20482       -0.36998       -1.90299
H         -4.13284       -0.46811       -0.18745
H         -3.45630       -0.94281        1.38446
H         -4.16569        0.67772        1.17520
H         -2.30365        2.14181        2.02009
H         -1.44452        0.65260        2.58421
H         -3.24466        2.52762       -0.32965
H         -2.88508        1.51016       -1.76966
H         -0.56491        2.27887       -1.83991
H         -0.36671       -3.21654       -2.42429
H         -0.62744       -3.84402       -0.73554
H         -2.64854       -2.54394       -0.54809
H         -2.40271       -1.88216       -2.22774
