50
830.log
C          4.30077       -1.34900        0.74398
C          4.23106        0.16839        0.66055
C          3.53838        0.67642       -0.60421
P          1.69532        0.64916       -0.71912
N          1.49591        1.61217       -2.07030
C          0.60938        1.33037       -3.18731
N          1.35156        1.96491        0.51141
O          2.26183        2.53926        1.05482
O          0.17964        2.29306        0.57503
Rh         0.30024       -1.08732       -0.30349
Cl         1.08196       -0.40357        1.87314
C         -3.02624        1.27050        3.56317
C         -2.09434        1.07890        2.37399
C         -2.70612        0.12931        1.34876
P         -1.68199        0.04918       -0.18850
N         -1.94188        1.43983       -1.05807
C         -3.20613        2.16205       -1.03370
N         -2.86702       -0.96108       -1.12442
O         -2.98124       -0.71575       -2.30190
O         -3.44476       -1.84710       -0.53117
C          0.70149       -3.23828        0.20288
C         -0.64013       -2.82369        0.45931
H          3.31221       -1.76220        0.91680
H          4.70846       -1.77352       -0.17217
H          4.93620       -1.64541        1.57478
H          3.72306        0.55885        1.54215
H          5.24679        0.57216        0.65950
H          3.80528        1.73010       -0.75436
H          3.88315        0.10576       -1.47445
H          2.27673        2.20695       -2.32529
H         -0.13171        0.59533       -2.87443
H          1.15604        0.93582       -4.04640
H          0.09265        2.24297       -3.48846
H          1.47523       -2.06511       -0.41119
H         -0.03531       -1.45733       -1.73101
H         -3.22553        0.31782        4.04935
H         -2.57504        1.93915        4.29158
H         -3.97588        1.69830        3.24596
H         -1.14185        0.67551        2.71827
H         -1.88502        2.04405        1.90671
H         -3.71110        0.46308        1.06603
H         -2.78811       -0.87976        1.75889
H         -1.14568        2.06453       -1.02074
H         -3.21739        2.85133       -1.87743
H         -4.03228        1.46370       -1.16204
H         -3.35710        2.73278       -0.11389
H          0.86760       -3.94318       -0.60631
H          1.34631       -3.40135        1.06262
H         -0.92338       -2.68893        1.50059
H         -1.43076       -3.24301       -0.15611
