40
831.log
C         -4.63671        1.33322        0.28672
C         -4.12942        0.32882       -0.75082
C         -3.28430       -0.71169       -0.07526
O         -3.68099       -1.52404        0.70858
P         -1.47649       -0.72476       -0.61321
C         -1.71794       -1.65783       -2.18113
Br        -0.84899       -2.36352        0.68603
Rh        -0.33408        1.24742       -0.45914
Cl        -1.34583        1.24545        1.72998
C          3.23895       -3.46661       -0.72132
C          2.89762       -2.28682        0.17876
C          1.92304       -1.35533       -0.46509
O          1.36106       -1.54089       -1.51232
P          1.52114        0.28243        0.38762
C          1.73318       -0.02886        2.17952
Br         3.46790        1.21037       -0.03634
C         -0.92310        3.39205       -0.72423
C          0.39296        3.20495       -0.19468
H         -3.80103        1.79798        0.80520
H         -5.22900        2.10565       -0.19790
H         -5.25142        0.82462        1.02509
H         -4.98255       -0.17433       -1.21458
H         -3.54656        0.83784       -1.52677
H         -0.74142       -1.97789       -2.54371
H         -2.16485       -0.99263       -2.91910
H         -2.35920       -2.52675       -2.02234
H         -1.53314        2.03294       -1.02254
H          0.24809        1.17567       -1.86110
H          2.33594       -4.02010       -0.96466
H          3.69180       -3.11946       -1.64665
H          3.93418       -4.13166       -0.21737
H          2.42260       -2.64191        1.09956
H          3.79998       -1.73318        0.45447
H          2.70677       -0.46485        2.40293
H          0.93240       -0.68663        2.51790
H          1.63055        0.92516        2.69977
H         -1.00975        3.79963       -1.72727
H         -1.68678        3.75109       -0.03986
H          0.54056        3.44370        0.85689
H          1.23751        3.47178       -0.82650
