44
832.log
C          0.35169       -2.75342       -1.32911
O          0.51978       -2.37264        0.03543
P          1.18317       -0.96947        0.48719
C          1.34879       -1.42710        2.25352
C          2.94365       -1.22525       -0.07591
C          3.88147       -0.23412        0.56498
Br         5.67417       -0.34212       -0.22557
Rh         0.30581        1.08902       -0.00541
Cl        -0.68615        0.36087       -2.07281
C         -3.42869        1.98610       -0.57405
O         -2.97691        1.64072        0.73478
P         -1.68098        0.76197        1.09145
C         -1.71416        1.14013        2.87794
C         -2.34566       -0.98112        1.16044
C         -2.83219       -1.52202       -0.17382
Br        -4.74400       -1.24154       -0.41744
C          1.11047        2.86830       -1.11165
C         -0.17249        3.08363       -0.51935
H          1.29625       -3.10713       -1.74577
H         -0.02602       -1.92540       -1.93109
H         -0.36969       -3.56979       -1.33391
H          0.36361       -1.57559        2.68810
H          1.84336       -0.61845        2.78480
H          1.91993       -2.34928        2.34181
H          3.23328       -2.25452        0.16003
H          2.95382       -1.10352       -1.16492
H          4.01518       -0.42345        1.62835
H          3.54331        0.79219        0.41509
H          1.57366        1.42263       -0.80637
H          0.93613        1.58814        1.27931
H         -2.80090        1.55686       -1.35568
H         -4.44848        1.61778       -0.68958
H         -3.43056        3.07422       -0.65805
H         -2.73331        1.04382        3.24637
H         -1.04938        0.46872        3.41438
H         -1.37458        2.16283        3.02209
H         -3.14592       -1.00438        1.90644
H         -1.52717       -1.61351        1.51234
H         -2.69364       -2.60110       -0.23764
H         -2.33610       -1.04027       -1.01804
H          1.96382        3.38610       -0.68290
H          1.15221        2.78815       -2.19470
H         -1.01274        3.16729       -1.20067
H         -0.23167        3.76197        0.32772
