42
843.log
C         -2.65378        0.28588        1.93230
P         -1.59207       -0.08017        0.48640
C         -2.48439       -1.64575       -0.02523
Br        -4.41153       -1.47682       -0.29019
C         -2.17576        0.97835       -0.95404
C         -2.93002        2.20810       -0.58489
O         -2.53036        3.34655       -0.72545
O         -4.14193        1.95166       -0.11832
Rh         0.64081       -0.87791        0.51231
Cl         0.22768       -1.19894       -1.81258
C          2.19570        1.50984       -1.58886
P          1.97083        0.87521        0.11632
C          3.72224        0.79099        0.72924
Br         4.79664       -0.39349       -0.35547
C          1.58780        2.45500        1.04086
C          0.18266        2.75095        0.65205
O         -0.75845        2.14726        1.12607
O          0.06356        3.64679       -0.30361
C          0.95072       -3.18978        0.69180
C          2.12999       -2.32403        0.46018
H         -2.32174        1.19396        2.42137
H         -3.69809        0.37602        1.63896
H         -2.53925       -0.55011        2.62391
H         -2.36091       -2.40671        0.74888
H         -2.07776       -2.00950       -0.97033
H         -1.28663        1.24108       -1.53069
H         -2.82376        0.35073       -1.56864
H         -4.61655        2.76913        0.10253
H          0.02873       -2.43648        0.78299
H          0.83714       -0.67201        2.00546
H          1.50278        0.98244       -2.24521
H          3.20674        1.30628       -1.94029
H          1.99143        2.57891       -1.63114
H          4.19989        1.77166        0.68417
H          3.74151        0.40424        1.74845
H          1.64550        2.23643        2.10704
H          2.26707        3.25465        0.74505
H         -0.89424        3.71418       -0.58429
H          0.95749       -3.73863        1.63221
H          0.69645       -3.83761       -0.14577
H          2.59399       -2.43836       -0.51782
H          2.86936       -2.32247        1.26003
