48
848.log
C          3.68456        1.57281       -1.89509
C          3.69784        0.67892       -0.66421
O          3.03929       -0.55215       -0.90802
P          1.49590       -0.81161       -0.49216
C         -0.39407        0.51366       -1.54846
O          0.70613       -0.27280       -1.82499
C          1.56992       -2.61271       -0.83061
C          2.02724       -3.35264        0.41691
Rh         0.40083        0.38141        1.14492
Cl         0.22165        1.99178       -0.68838
C         -3.93369        1.53281       -2.20087
C         -3.06648        1.86399       -0.99347
O         -2.77845        0.68182       -0.26821
P         -1.48778       -0.25971       -0.00576
C         -2.14872       -2.74450       -0.45589
O         -1.55304       -1.57835       -0.98235
C         -2.50830       -1.19842        1.32557
C         -2.12479       -2.63469        1.06106
C          1.07965        1.96019        2.83247
C         -0.37648        1.66671        2.53178
H          4.08450        1.02842       -2.74667
H          2.66861        1.88047       -2.12935
H          4.29256        2.45655       -1.71868
H          4.72764        0.42723       -0.38789
H          3.22923        1.19804        0.18749
H         -0.80813        0.83679       -2.50940
H          0.58447       -2.94199       -1.14969
H          2.27488       -2.74735       -1.65433
H          2.03225       -4.42847        0.25260
H          3.03209       -3.03850        0.69254
H          1.36226       -3.12771        1.24894
H          1.71904        1.25700        2.17082
H          0.30460       -0.71653        2.15723
H         -4.83067        1.01135       -1.87786
H         -3.38875        0.88750       -2.88590
H         -4.21868        2.44660       -2.71566
H         -3.61041        2.51801       -0.30220
H         -2.16009        2.38029       -1.31527
H         -3.18093       -2.81639       -0.81846
H         -2.24408       -0.86717        2.32537
H         -3.57446       -1.04657        1.15313
H         -1.10210       -2.80528        1.40584
H         -2.78879       -3.36516        1.52304
H         -1.58771       -3.60261       -0.82151
H          1.36074        1.72802        3.85766
H          1.38217        2.97889        2.58823
H         -0.91260        2.52743        2.12332
H         -0.92648        1.28220        3.38979
