50
855.log
C          3.40873       -2.01293        0.09972
C          2.96906       -1.15919       -1.07873
P          1.38982       -0.24160       -0.73459
O          1.45777        0.90500       -1.87849
C          0.83257        0.75372       -3.13490
O          1.79238        0.70361        0.54168
C          2.87338        1.50554        0.63143
C          2.98780        2.10593        2.00612
O          3.63816        1.70365       -0.26671
Rh        -0.52626       -1.43951       -0.27520
Cl         0.40257       -1.81109        1.87801
C         -3.69579        0.52907       -1.56372
C         -3.47117        0.56900       -0.06255
P         -1.69773        0.35701        0.37904
O         -1.87711        0.85010        1.88331
C         -0.82346        1.09565        2.80792
O         -0.93484        1.63606       -0.38007
C         -1.19829        2.94331       -0.19135
C         -0.18147        3.80360       -0.89138
O         -2.12984        3.35020        0.44156
C         -0.81129       -3.72726       -0.37060
C         -1.93969       -2.89701        0.11327
H          4.27866       -2.61136       -0.16535
H          2.60959       -2.68098        0.41636
H          3.66784       -1.38594        0.95062
H          2.77023       -1.78889       -1.95122
H          3.73251       -0.42682       -1.34882
H         -0.17217        0.33840       -3.01984
H          0.77250        1.74837       -3.57631
H          1.42090        0.10477       -3.78735
H          3.21210        3.16651        1.92404
H          3.81943        1.62564        2.51928
H          2.07825        1.94314        2.57444
H          0.07419       -2.94975       -0.66873
H         -1.07806       -1.26727       -1.68036
H         -4.75799        0.59163       -1.79035
H         -3.19077        1.36210       -2.04877
H         -3.30407       -0.39719       -1.97965
H         -4.00626       -0.24388        0.42958
H         -3.79915        1.51549        0.36880
H         -0.34483        2.05157        2.58186
H         -0.08745        0.28967        2.78762
H         -1.29100        1.14526        3.79069
H         -0.05407        4.73808       -0.35181
H         -0.55510        4.03095       -1.88863
H          0.76093        3.27194       -0.98611
H         -1.00241       -4.28288       -1.28748
H         -0.35629       -4.35754        0.39202
H         -2.17830       -3.01664        1.16869
H         -2.83687       -2.92464       -0.50366
