48
856.log
C          4.56290        0.93174        1.14257
C          3.51244       -0.13580        0.82482
C          4.08277       -1.45417        0.94858
N          4.54343       -2.49599        1.04550
C          2.99664       -0.00694       -0.60865
O          3.67777        0.37487       -1.52040
P          1.20322       -0.42408       -0.85355
C          1.18478       -0.63287       -2.65788
C          1.21521       -2.17002       -0.28076
Rh        -0.12855        1.21472        0.05653
Cl        -1.54656        1.01558       -1.84143
C         -4.08781       -0.69374       -0.57501
C         -3.13104       -1.85376       -0.32734
C         -2.26499       -2.07874       -1.46341
N         -1.57140       -2.33660       -2.33460
C         -2.18373       -1.71487        0.85764
O         -1.79936       -2.69207        1.44841
P         -1.47787       -0.06151        1.39844
C         -0.68578       -0.66248        2.93542
C         -2.97101        0.70817        2.15249
C         -0.14409        3.41900       -0.34223
C         -1.15494        2.99738        0.57206
H          4.09518        1.91348        1.12848
H          5.35151        0.90914        0.39397
H          4.99868        0.75796        2.12376
H          2.65382       -0.06046        1.50524
H          0.21268       -1.03244       -2.94785
H          1.32890        0.33888       -3.13047
H          1.98254       -1.31422       -2.95500
H          2.06605       -2.69434       -0.71642
H          0.29413       -2.63996       -0.62314
H          1.26263       -2.23626        0.80470
H          0.72388        2.18925       -0.76586
H          0.80380        1.40207        1.24283
H         -4.67854       -0.89864       -1.46591
H         -4.76303       -0.57480        0.26887
H         -3.52676        0.22210       -0.75369
H         -3.68799       -2.79053       -0.17715
H         -0.32901        0.20550        3.48801
H          0.16151       -1.30122        2.69469
H         -1.39512       -1.22711        3.53883
H         -2.61507        1.43684        2.88085
H         -3.56788       -0.04807        2.66218
H         -3.57212        1.22362        1.40918
H          0.67398        4.02185        0.04157
H         -0.46214        3.69463       -1.34332
H         -2.17664        2.99754        0.20388
H         -1.05810        3.30982        1.60873
