40
86.log
C         -3.48293        1.85973       -0.82233
N         -2.93608        0.63535       -1.38669
P         -1.73787       -0.21457       -0.57346
C         -1.75939       -1.71751       -1.61355
C         -2.58384       -0.80276        0.99030
Cl        -4.17682       -1.49068        0.61665
Rh         0.22922        0.86810       -0.24925
Cl        -0.14009        0.97989        2.13498
C          4.04275       -0.11917        1.23488
N          2.75269       -0.71983        1.54984
P          1.49472       -0.89983        0.44056
C          0.67001       -2.25718        1.36131
C          2.35593       -1.94366       -0.82819
Cl         3.15307       -0.89257       -2.00935
C          0.75276        3.04043       -0.33979
C          1.86377        2.19987       -0.03537
H         -4.27284        1.67441       -0.08854
H         -3.88915        2.47403       -1.62753
H         -2.68168        2.41280       -0.33018
H         -3.67832        0.02374       -1.71742
H         -2.72850       -2.21277       -1.56608
H         -1.55477       -1.39363       -2.63290
H         -0.97633       -2.40476       -1.30156
H         -2.00395       -1.55508        1.51912
H         -2.72995        0.05826        1.64607
H         -0.53406        2.15478       -0.56214
H          0.52510        0.70014       -1.72072
H          4.76468       -0.47933        1.97111
H          4.04331        0.97221        1.26111
H          4.36712       -0.43971        0.24793
H          2.34756       -0.28390        2.37885
H          0.24134       -1.83371        2.26756
H          1.42316       -2.99663        1.62995
H         -0.11511       -2.71969        0.76814
H          1.63220       -2.54816       -1.37580
H          3.11175       -2.57829       -0.36283
H          0.73119        3.52891       -1.30952
H          0.35123        3.64812        0.46717
H          2.22869        2.24340        0.98729
H          2.64436        2.09628       -0.78397
