42
861.log
C          3.43643        1.26310       -1.19682
N          2.42597        1.76557       -0.28482
C          1.56496        2.72652       -0.95585
P          1.54418        0.54061        0.52904
C          2.90601       -0.14835        1.55889
O          0.75802        1.43087        1.59776
Rh         0.17011       -0.94064       -0.51850
Cl         0.12097       -2.01113        1.65330
C         -1.92091        2.18548       -1.53988
N         -1.83750        1.82738       -0.14087
C         -2.71374        2.62685        0.69070
P         -1.70478        0.16526        0.17365
C         -3.36021       -0.52124       -0.31806
O         -1.85211        0.14803        1.74821
C          0.53715       -2.92132       -1.46792
C         -0.85183       -2.55202       -1.38348
H          4.10248        0.58442       -0.66987
H          2.99522        0.73526       -2.05187
H          4.02061        2.10501       -1.57167
H          1.19291        2.34466       -1.91251
H          0.71045        2.95050       -0.32046
H          2.13258        3.64117       -1.13927
H          3.55745        0.66075        1.88955
H          3.48002       -0.89517        1.01853
H          2.44071       -0.63307        2.41552
H          1.34420        2.03894        2.06428
H          1.38160       -1.81169       -0.93280
H          0.22460       -0.23426       -1.85541
H         -1.28931        1.50770       -2.11249
H         -2.94585        2.12580       -1.92793
H         -1.56403        3.20934       -1.67625
H         -2.36841        3.66339        0.67128
H         -2.66653        2.26037        1.71229
H         -3.75591        2.60768        0.34745
H         -3.42572       -1.55817       -0.00035
H         -3.49289       -0.46651       -1.39488
H         -4.13136        0.05720        0.18967
H         -1.23057       -0.54318        2.07814
H          0.98034       -2.98174       -2.45838
H          0.87669       -3.71177       -0.80327
H         -1.45490       -3.10597       -0.66825
H         -1.37045       -2.35649       -2.31855
