42
872.log
C         -3.41729        1.15291        1.34301
C         -2.85631       -0.26191        1.36847
C         -2.03900       -0.53925        2.62023
P         -1.82360       -0.56256       -0.14649
O         -2.92578       -0.59479       -1.31521
C         -1.28295       -2.75175       -1.70654
O         -0.19454       -2.52318       -1.92310
Rh        -0.06856        0.72545       -0.79683
Cl         0.01677        1.93561        1.26806
C          3.45272        0.88560        1.16258
C          2.72390       -0.44386        1.31044
C          1.96239       -0.51309        2.62343
P          1.60796       -0.67356       -0.17915
O          2.68137       -0.91239       -1.35075
C          1.15957       -2.41661        0.23920
O          0.29838       -2.74771        1.00798
C         -0.02991        2.71360       -1.80259
C          1.26936        2.14680       -1.59106
H         -2.60549        1.86943        1.44896
H         -4.11657        1.30279        2.16361
H         -3.93515        1.34841        0.40306
H         -3.68231       -0.99008        1.29854
H         -2.67317       -0.50481        3.50407
H         -1.26193        0.21336        2.72336
H         -1.56743       -1.51899        2.56125
H         -3.67693       -1.17379       -1.13826
H         -1.67236       -1.94161        0.10969
H         -1.08691        1.76372       -1.28706
H         -0.11608        0.05306       -2.14741
H          3.91618        0.97803        0.18007
H          4.22635        0.97844        1.92285
H          2.74309        1.69912        1.29551
H          3.44936       -1.27407        1.25651
H          1.26659        0.31934        2.68680
H          2.65897       -0.44522        3.45733
H          1.40166       -1.44053        2.71604
H          3.44341       -1.45353       -1.11183
H          1.76982       -3.18244       -0.29807
H         -0.39144        2.78378       -2.82511
H         -0.30052        3.56775       -1.18678
H          1.89300        2.62148       -0.83962
H          1.82222        1.80725       -2.46280
