46
878.log
C         -3.94319        3.28620       -0.37213
C         -4.19365        1.77873       -0.47322
C         -3.59181        1.08718        0.72247
O         -4.24107        0.73532        1.67831
C         -2.10237        0.87788        0.65965
P         -1.69356       -0.90534        0.29110
C         -2.37145       -1.74527        1.77379
Cl        -3.11559       -1.35215       -1.01510
Rh         0.41940       -1.34247       -0.45097
Cl         0.27069        0.74404       -1.63179
C          2.99389        4.22226       -0.21950
C          2.23553        3.14730       -1.00086
C          2.46768        1.79737       -0.36915
O          3.25311        0.98704       -0.79932
C          1.80468        1.55497        0.97460
P          1.58192       -0.27137        1.18715
C          0.92895       -0.26958        2.91308
Cl         3.41140       -0.88354        1.58030
C          1.17161       -2.32778       -2.33954
C          2.20370       -1.86618       -1.47478
H         -2.87843        3.50605       -0.39671
H         -4.41672        3.79377       -1.20824
H         -4.36009        3.67893        0.55258
H         -3.74110        1.39656       -1.38868
H         -5.26762        1.58732       -0.48798
H         -1.62949        1.47147       -0.12485
H         -1.64869        1.09402        1.62938
H         -3.35152       -1.33758        2.02121
H         -2.45576       -2.80773        1.55179
H         -1.69159       -1.61632        2.61161
H         -0.20339       -2.07544       -1.64630
H          0.47514       -2.64676        0.32214
H          2.89321        5.18125       -0.72150
H          4.05131        3.97367       -0.16199
H          2.60334        4.32161        0.79107
H          1.17037        3.37449       -1.01479
H          2.59885        3.11045       -2.02826
H          0.83896        2.05532        1.05061
H          2.46980        1.91547        1.76574
H         -0.04977        0.20169        2.95318
H          1.61871        0.25904        3.56994
H          0.84220       -1.30204        3.24599
H          1.04295       -3.39976       -2.45874
H          0.98032       -1.75931       -3.24577
H          2.76047       -0.98295       -1.77218
H          2.80199       -2.61042       -0.95569
