44
880.log
C          1.80042        3.63088       -1.76479
C          1.84810        2.11099       -1.69528
C          2.10466        1.63648       -0.26411
P          1.79032       -0.16824       -0.13772
C          3.21452       -0.90167       -1.07919
O          3.69337       -0.40865       -2.05547
N          2.50276       -0.52672        1.48430
O          2.96294       -1.63088        1.61851
O          2.50502        0.37662        2.28078
Rh        -0.19207       -1.21231       -0.50782
Cl        -0.26707       -1.73164        1.81786
C         -0.45638        3.03566        2.38717
C         -0.77951        1.55353        2.51019
C         -1.98999        1.13608        1.67167
P         -1.59685        0.53547       -0.01814
C         -1.53929        2.04337       -1.11073
O         -1.22069        3.13535       -0.74764
N         -3.26893        0.17112       -0.58034
O         -3.38617        0.03920       -1.77820
O         -4.14685        0.08632        0.24201
C         -0.71747       -3.36826       -0.92622
C         -1.85007       -2.52142       -0.82737
H          1.68517        3.95620       -2.79512
H          0.96021        4.01399       -1.18960
H          2.71733        4.06057       -1.36855
H          2.63332        1.73340       -2.35084
H          0.89668        1.69640       -2.04783
H          1.42944        2.14465        0.43265
H          3.13585        1.84294        0.04102
H          3.54995       -1.87520       -0.66564
H          0.60224       -2.48937       -0.77345
H         -0.14908       -0.86772       -1.99216
H         -1.25927        3.63527        2.81095
H         -0.33228        3.32900        1.34780
H          0.45996        3.26070        2.92704
H          0.09147        0.95597        2.22938
H         -0.99032        1.32321        3.55559
H         -2.48814        0.27927        2.14022
H         -2.71077        1.95642        1.58875
H         -1.82112        1.80744       -2.15542
H         -0.46064       -3.76816       -1.90232
H         -0.51066       -4.03660       -0.09533
H         -2.46026       -2.60311        0.06917
H         -2.40547       -2.30042       -1.73556
