46
881.log
C          3.36740        2.47646        0.59506
C          2.97592        1.12520        1.20310
C          2.88780        1.21504        2.72370
C          1.63090        0.76106        0.62289
O          0.58544        1.20761        1.07223
P          1.49576       -0.11831       -1.02887
C          3.17778       -0.73240       -1.43354
Cl         1.41429        1.40298       -2.32306
Rh        -0.17725       -1.56316       -0.53553
Cl         1.49540       -1.58496        1.25900
C         -2.28516        1.73856       -1.91368
C         -1.62990        2.51648       -0.77468
C         -2.12175        3.95940       -0.71462
C         -1.85508        1.82223        0.53550
O         -2.30492        2.32910        1.52174
P         -1.44342       -0.02935        0.65690
C         -1.37134       -0.22469        2.47278
Cl        -3.39310       -0.52129        0.43736
C         -0.30410       -3.78615       -0.61751
C         -1.32197       -3.16515        0.18291
H          4.33689        2.78275        0.98096
H          3.42570        2.42212       -0.49021
H          2.63124        3.23088        0.86366
H          3.71369        0.36921        0.92392
H          2.65320        0.23941        3.14260
H          2.10680        1.91473        3.01140
H          3.83616        1.55264        3.13390
H          3.89927        0.08388       -1.43104
H          3.13118       -1.16056       -2.43576
H          3.47138       -1.50676       -0.72856
H          0.55602       -2.72291       -1.24416
H         -1.06317       -1.42945       -1.74350
H         -2.05181        2.21197       -2.86442
H         -3.36552        1.71905       -1.78821
H         -1.91589        0.71338       -1.94278
H         -0.54422        2.50721       -0.92685
H         -3.19817        3.98173       -0.56177
H         -1.65011        4.48606        0.11109
H         -1.88706        4.47428       -1.64282
H         -1.72834       -1.22315        2.72528
H         -0.35302       -0.09575        2.82768
H         -2.01833        0.53225        2.91786
H         -0.61770       -4.26941       -1.53797
H          0.47868       -4.33015       -0.09380
H         -1.24003       -3.28924        1.26113
H         -2.34480       -3.21114       -0.17879
