48
895.log
C          3.89942       -1.46999       -1.38857
C          3.54668       -0.52163       -0.25142
P          1.87905        0.25469       -0.44428
C          2.12281        1.16886       -2.02168
C          2.05948        1.59141        0.86041
N          2.68433        2.83638        0.49606
O          1.79213        3.65405       -0.27068
Rh         0.10462       -1.15798       -0.17405
Cl         0.70454       -0.98121        2.13995
C         -1.46840        1.72521        2.47647
C         -2.33497        0.85128        1.58218
P         -1.56423        0.39367       -0.02822
C         -1.32186        2.03499       -0.81759
C         -3.11670       -0.15724       -0.88919
N         -4.07683        0.91826       -0.95655
O         -5.38811        0.44881       -1.18803
C          0.03714       -3.37054        0.13862
C         -1.23615       -2.73095        0.27866
H          4.06461       -0.92485       -2.31539
H          3.09078       -2.18232       -1.55254
H          4.80482       -2.02643       -1.15332
H          4.29609        0.27406       -0.17006
H          3.52102       -1.06268        0.69972
H          1.38624        1.96340       -2.10774
H          1.97917        0.46648       -2.84010
H          3.12400        1.59524       -2.08147
H          1.06904        1.81350        1.26362
H          2.64699        1.15131        1.67223
H          3.49163        2.68147       -0.10606
H          1.57879        4.40008        0.30641
H          1.08764       -2.33290       -0.26693
H         -0.17209       -1.27499       -1.66429
H         -2.00991        1.97208        3.38789
H         -1.19940        2.65540        1.97898
H         -0.56369        1.18984        2.75635
H         -3.28000        1.34607        1.33707
H         -2.55314       -0.08801        2.09837
H         -1.26050        1.89217       -1.89616
H         -2.14895        2.69736       -0.56836
H         -0.38401        2.47377       -0.48234
H         -3.54860       -0.94841       -0.26731
H         -2.85547       -0.58804       -1.87079
H         -3.84409        1.56649       -1.70831
H         -5.41092       -0.11793       -1.97888
H          0.17546       -4.04022       -0.70608
H          0.52209       -3.71379        1.04838
H         -1.63625       -2.65053        1.28586
H         -1.98834       -2.95712       -0.47258
