48
900.log
C          3.76275        0.62060       -2.07585
C          4.18436        0.88869       -0.63698
N          3.05316        1.03231        0.27069
C          2.39604        2.17370        0.21604
N          1.81896        3.16679        0.23862
P          1.98719       -0.26565        0.73742
C          1.80552        0.23314        2.49222
C          3.19500       -1.62407        0.95323
Rh         0.16531       -0.79743       -0.52181
Cl        -0.46472       -1.96239        1.48737
C         -4.52146        0.43250        1.79346
C         -3.47894       -0.28566        0.94678
N         -2.90830        0.62257       -0.05059
C         -3.57027        0.73160       -1.18488
N         -4.18646        0.84947       -2.14631
P         -1.21884        0.95786       -0.04665
C         -1.13908        1.84557        1.55412
C         -1.20969        2.37016       -1.19842
C         -0.26798       -2.64652       -1.72136
C         -1.36745       -1.73755       -1.63361
H          4.64056        0.51021       -2.70749
H          3.15905        1.44413       -2.45142
H          3.16846       -0.29061       -2.12840
H          4.80580        0.07097       -0.26591
H          4.76792        1.81406       -0.58320
H          1.41501        1.24597        2.55853
H          1.11665       -0.45646        2.97548
H          2.78091        0.19056        2.97712
H          3.53480       -2.00934       -0.00726
H          4.04275       -1.30451        1.55916
H          2.65581       -2.41601        1.47394
H          0.93959       -2.04869       -0.97377
H          0.63133       -0.05736       -1.75485
H         -4.95159       -0.26257        2.50981
H         -5.31775        0.81923        1.16032
H         -4.07570        1.26134        2.33780
H         -3.94593       -1.14283        0.44886
H         -2.66126       -0.65821        1.57012
H         -0.22622        2.43874        1.55835
H         -2.00016        2.50884        1.63214
H         -1.12859        1.14430        2.38645
H         -0.23577        2.85204       -1.12223
H         -1.35846        2.02034       -2.21845
H         -1.99669        3.07540       -0.93336
H          0.21490       -2.76781       -2.68679
H         -0.33840       -3.56846       -1.15035
H         -2.20102       -2.04532       -1.00809
H         -1.67400       -1.21696       -2.53721
