40
903.log
C          2.33797       -2.11049        1.32161
P          1.78411       -0.63740        0.38296
C          3.17981       -0.42947       -0.83583
O          3.16369        0.86757       -1.38232
C          2.32646        0.69249        1.57634
O          2.29925        1.97049        0.99459
Rh        -0.29213       -0.79412       -0.55546
Cl        -1.16433       -1.51166        1.57945
C         -0.85565        1.96954        1.65201
P         -1.17495        1.24254        0.00097
C         -0.74883        2.67541       -1.10286
O          0.63424        2.70978       -1.32735
C         -3.02932        1.31955        0.04179
O         -3.53296        0.60387        1.13012
C         -1.24976       -2.56669       -1.52547
C         -2.09001       -1.41326       -1.48766
H          3.31090       -1.94372        1.78203
H          1.59658       -2.32195        2.09145
H          2.39011       -2.96486        0.64750
H          4.14509       -0.54191       -0.32958
H          3.09976       -1.19669       -1.61911
H          2.30872        1.01788       -1.81935
H          1.64783        0.69913        2.43471
H          3.33962        0.44553        1.93133
H          2.87887        1.93790        0.21034
H          0.15609       -2.21767       -0.91700
H          0.21833       -0.28668       -1.88760
H          0.15728        2.36073        1.71252
H         -1.57382        2.77027        1.82970
H         -0.99243        1.19251        2.40301
H         -1.11070        3.61769       -0.66293
H         -1.22345        2.53190       -2.07804
H          1.08154        2.73690       -0.46642
H         -3.43926        0.95302       -0.91360
H         -3.33722        2.36739        0.16418
H         -2.97461       -0.18363        1.28737
H         -0.87865       -2.89745       -2.49104
H         -1.49030       -3.38093       -0.84790
H         -2.93233       -1.45094       -0.80314
H         -2.31338       -0.92380       -2.43214
