34
906.log
C         -2.53169       -1.27034       -1.75062
P         -1.77025       -0.26018       -0.42849
C         -3.33009        0.52785        0.19606
F         -3.81802        1.25002       -0.86453
N         -1.60236       -1.55027        0.82718
O         -0.48935       -1.95723        1.09068
O         -2.62726       -1.99059        1.28759
Rh         0.11718        0.96904       -0.36684
Cl        -0.69204        0.98527        1.91902
C          2.05568       -1.14738        1.90538
P          1.50461       -0.73792        0.21644
C          1.48018       -2.35531       -0.70511
F          0.26310       -2.49003       -1.32204
N          3.16888       -0.24879       -0.36210
O          3.85726        0.36757        0.41900
O          3.46840       -0.50797       -1.50550
C          0.43367        3.18669       -0.34224
C          1.60541        2.43508       -0.03364
H         -2.99117       -0.57120       -2.44990
H         -3.29457       -1.92855       -1.33183
H         -1.77638       -1.84823       -2.27539
H         -3.13748        1.22158        1.01964
H         -4.08284       -0.21885        0.47378
H         -0.71138        2.20931       -0.72425
H          0.51558        0.84817       -1.82091
H          2.40802       -0.22873        2.37360
H          2.86833       -1.87300        1.86316
H          1.22193       -1.54294        2.47672
H          2.23661       -2.36181       -1.49759
H          1.59054       -3.20046       -0.01761
H          0.41741        3.74077       -1.27548
H         -0.07140        3.68995        0.47787
H          1.94311        2.42803        1.00022
H          2.41697        2.45086       -0.75611
