44
91.log
C          2.37711        4.19807       -0.52351
C          2.92470        3.00800        0.25263
C          2.50035        1.69554       -0.35159
O          2.09608        1.53124       -1.47226
O          2.64545        0.67406        0.49368
P          2.16026       -0.83985       -0.04002
C          3.54756       -1.21498       -1.17882
O          2.62554       -1.61874        1.24467
Rh        -0.05671       -1.17018       -0.52178
Cl        -0.13182       -2.41156        1.57715
C         -5.44086        1.42202       -0.68119
C         -4.51112        1.17677        0.49864
C         -3.06805        1.11485        0.07624
O         -2.65107        1.26873       -1.04104
O         -2.24162        0.87150        1.09836
P         -0.63120        0.66320        0.67947
C         -0.05109        0.82675        2.39861
O         -0.25064        2.13052        0.16533
C         -1.13643       -2.84985       -1.49893
C         -1.99235       -1.81833       -0.98824
H          2.60889        4.09223       -1.57970
H          1.29794        4.25242       -0.41174
H          2.81486        5.12182       -0.15526
H          2.60201        3.02784        1.29404
H          4.01839        3.01872        0.24586
H          3.48668       -0.58941       -2.06389
H          3.47607       -2.26045       -1.46703
H          4.48227       -1.04333       -0.64753
H          1.82770       -2.05251        1.65101
H          0.30655       -2.45320       -1.28618
H          0.00144       -0.39542       -1.81205
H         -5.34559        0.62061       -1.40872
H         -5.18505        2.35598       -1.17396
H         -6.47276        1.47110       -0.34445
H         -4.74885        0.23550        0.99945
H         -4.60468        1.97028        1.24381
H         -0.52711        0.05732        3.00042
H         -0.32715        1.81505        2.76075
H          1.02631        0.69454        2.43971
H         -0.26220        2.18337       -0.79699
H         -1.08791       -2.97258       -2.57704
H         -1.11578       -3.79164       -0.95611
H         -2.57357       -2.05299       -0.09940
H         -2.53053       -1.21245       -1.71086
