48
917.log
C         -4.22450        1.42997       -0.62729
C         -2.84988        0.83358       -0.89612
N         -1.89878        1.88561       -1.18200
C         -1.79730        2.92268       -0.39003
N         -1.74529        3.85298        0.28498
P         -2.18127       -0.29424        0.46229
C         -2.40511        0.69394        1.99140
C         -3.56875       -1.48210        0.66356
Rh        -0.19394       -1.35538        0.00726
Cl         0.19669       -0.17837       -2.07669
C          4.13957        0.52728        1.30928
C          3.07885       -0.12760        0.43519
N          3.15229        0.36245       -0.92955
C          3.69119        1.52897       -1.20177
N          4.22000        2.51471       -1.46344
P          1.29555        0.07582        1.02827
C          1.10347        1.87900        0.79020
C          1.45644       -0.02779        2.85062
C          0.12921       -3.28382       -1.09049
C          1.32830       -2.73673       -0.55003
H         -4.96728        0.65285       -0.47136
H         -4.52481        2.02320       -1.48954
H         -4.19850        2.08998        0.23680
H         -2.89137        0.19694       -1.79252
H         -1.04748        1.56534       -1.65094
H         -3.45905        0.92070        2.14438
H         -1.84069        1.62264        1.94157
H         -2.04140        0.09728        2.82728
H         -3.77538       -1.96880       -0.28918
H         -3.26140       -2.24054        1.38217
H         -4.46684       -0.98719        1.02843
H         -1.10396       -2.33005       -0.74574
H         -0.38836       -2.10367        1.30616
H          5.10900        0.42161        0.82397
H          4.18815        0.04094        2.27985
H          3.95683        1.59076        1.44460
H          3.27803       -1.20946        0.41147
H          2.35639        0.11265       -1.52266
H          0.17821        2.22437        1.24644
H          1.94000        2.41003        1.24307
H          1.07167        2.11074       -0.27387
H          0.46585        0.08522        3.28728
H          1.84322       -1.00798        3.12368
H          2.10919        0.75500        3.23082
H         -0.27761       -4.18124       -0.63460
H          0.00002       -3.24582       -2.16852
H          2.04492       -2.33875       -1.26294
H          1.78557       -3.26061        0.28541
