46
923.log
C         -0.88756        2.11431       -2.54924
C         -2.04924        1.48203       -1.79419
P         -1.59045        0.87248       -0.11765
C         -1.08315        2.40578        0.62634
N         -0.77261        3.37397        1.15508
C         -3.26316        0.83741        0.67759
O         -3.88425       -0.24767        0.04404
C         -5.14703       -0.56634        0.57808
Rh        -0.38625       -1.02135        0.24814
Cl         0.37262       -1.05119       -2.02591
C          1.45755        1.40482        2.92523
C          2.35654        0.41413        2.20060
P          1.65917       -0.08150        0.56946
C          1.80036        1.47336       -0.26641
N          1.83106        2.48916       -0.79785
C          3.13639       -0.97828       -0.13859
O          4.32165       -0.24476       -0.00090
C          4.74801        0.41073       -1.17633
C         -0.97328       -3.15737        0.05767
C          0.37522       -2.98092        0.49146
H         -0.46760        2.95140       -1.99422
H         -0.09920        1.38449       -2.71705
H         -1.23206        2.47356       -3.51685
H         -2.86768        2.20017       -1.66955
H         -2.42571        0.60722       -2.33464
H         -3.16194        0.67303        1.76208
H         -3.81423        1.77809        0.51300
H         -5.06909       -0.83659        1.63764
H         -5.84182        0.27565        0.47683
H         -5.51984       -1.41619        0.01003
H         -1.68678       -1.74510       -0.10820
H         -0.78049       -0.98724        1.71602
H          0.45300        0.99540        3.03546
H          1.85349        1.62079        3.91520
H          1.38091        2.33896        2.37156
H          2.45696       -0.50796        2.78328
H          3.35533        0.82701        2.03085
H          3.24186       -1.89765        0.45458
H          2.92586       -1.24742       -1.18066
H          4.96950       -0.31497       -1.96660
H          5.65637        0.94726       -0.90921
H          4.00022        1.11933       -1.54114
H         -1.68975       -3.56115        0.76672
H         -1.12874       -3.49269       -0.96384
H          1.15560       -3.21792       -0.22641
H          0.61937       -3.26160        1.51304
