40
924.log
C         -5.20824        1.55764       -1.13364
C         -3.80210        1.04045       -1.41257
C         -3.36590        0.03393       -0.35489
P         -1.58755       -0.42004       -0.50415
N         -1.63801       -1.32616       -1.92555
Br        -1.59405       -2.12198        0.88327
Rh        -0.04633        1.21967       -0.08519
Cl        -0.77193        1.10606        2.19376
C          5.19207        1.46386       -0.89910
C          3.85095        0.74325       -0.95175
C          3.38490        0.33042        0.44040
P          1.62870       -0.22377        0.47087
N          1.65656       -1.03688        1.93645
Br         1.79676       -1.98242       -0.84267
C         -0.18385        3.44968        0.05920
C          1.10528        2.93361        0.38516
H         -5.92058        0.73559       -1.12249
H         -5.24695        2.05783       -0.16837
H         -5.51210        2.26605       -1.90067
H         -3.77955        0.56897       -2.39867
H         -3.10284        1.88432       -1.43026
H         -3.50112        0.45619        0.64726
H         -3.95586       -0.88483       -0.43342
H         -1.78898       -0.74314       -2.74052
H         -0.80016       -1.88511       -2.07624
H         -1.11838        2.27722       -0.37080
H          0.39499        1.26393       -1.54595
H          5.51652        1.73205       -1.90135
H          5.95048        0.82398       -0.45315
H          5.11926        2.37403       -0.30654
H          3.94374       -0.14259       -1.58483
H          3.10050        1.39609       -1.40892
H          3.45423        1.18023        1.12789
H          3.99675       -0.48425        0.84160
H          0.82354       -1.60200        2.10182
H          1.72791       -0.37788        2.70695
H         -0.28478        4.02785       -0.85437
H         -0.80160        3.80985        0.87662
H          1.39085        2.95206        1.43424
H          1.92134        3.16064       -0.29501
