46
927.log
C         -3.42969        1.85497        1.15076
N         -2.98357        0.48011        1.26760
P         -1.81804       -0.27773        0.36579
Br        -3.03009       -1.18399       -1.31521
C         -1.72921       -1.81745        1.41701
C         -1.01500       -2.97645        0.73784
C         -1.08666       -1.44667        2.74785
Rh        -0.21409        1.13847       -0.48891
Cl        -0.05603        2.03573        1.73165
C          3.31404        1.89511        1.04273
N          3.13523        1.13175       -0.18591
P          1.83752        0.09688       -0.34938
Br         2.36524       -1.47340        1.18010
C          2.33899       -0.82629       -1.89181
C          3.79996       -1.25751       -1.95998
C          1.41681       -2.02814       -2.07487
C         -0.52957        3.21728       -1.28860
C          0.83066        2.81462       -1.28993
H         -2.56253        2.51472        1.16602
H         -4.01454        2.03321        0.24139
H         -4.04660        2.09421        2.01571
H         -3.68499       -0.13329        1.66638
H         -2.77793       -2.10819        1.58671
H          0.01789       -2.72492        0.52002
H         -1.01275       -3.83914        1.40136
H         -1.50967       -3.26501       -0.18849
H         -0.05774       -1.12658        2.60623
H         -1.62589       -0.63325        3.23026
H         -1.08167       -2.30748        3.41356
H         -1.43204        2.00298       -0.78894
H         -0.36037        0.56579       -1.88313
H          3.79859        1.30198        1.82532
H          3.92758        2.77179        0.83279
H          2.34243        2.21755        1.41730
H          4.01905        0.74751       -0.50434
H          2.13455       -0.10219       -2.69125
H          4.09258       -1.81412       -1.06963
H          3.93329       -1.91605       -2.81686
H          4.47379       -0.41295       -2.09566
H          0.37324       -1.74147       -1.93573
H          1.51959       -2.43374       -3.07930
H          1.66462       -2.81706       -1.36574
H         -1.03967        3.32324       -2.24130
H         -0.84239        3.93332       -0.53427
H          1.48458        3.26796       -0.55358
H          1.30785        2.62420       -2.24719
