46
928.log
C         -3.78649        1.30379        0.24019
C         -3.21617       -0.03063        0.70406
C         -4.27423       -0.89736        1.37601
O         -2.72048       -0.75870       -0.41863
P         -1.19655       -0.74105       -0.89904
C         -1.39273       -2.08855       -2.12255
O         -1.22002        0.56244       -1.85915
Rh         0.52714       -0.85089        0.61945
Cl         1.72026       -2.20053       -1.01613
C         -0.63858        4.05286       -0.41098
C          0.03436        2.89253        0.30963
C          0.77189        3.33890        1.56391
O          0.93838        2.30266       -0.61969
P          1.61004        0.86085       -0.40836
C          3.33894        1.30642        0.05591
O          1.79066        0.55294       -1.96452
C          1.06664       -2.32992        2.18963
C          2.01731       -1.26196        2.03368
H         -4.62094        1.13190       -0.43499
H         -4.13023        1.88130        1.09416
H         -3.02419        1.86710       -0.29076
H         -2.38775        0.14607        1.40642
H         -5.07741       -1.10836        0.67473
H         -4.68176       -0.38437        2.24244
H         -3.83545       -1.83932        1.69456
H         -0.50496       -2.15206       -2.74550
H         -1.53157       -3.03315       -1.60567
H         -2.26689       -1.85625       -2.72649
H         -0.34135        0.86989       -2.10714
H         -0.10496       -2.10496        1.26357
H         -0.17058        0.03317        1.62651
H         -1.13650        3.69308       -1.30743
H         -1.37146        4.52103        0.23976
H          0.10638        4.78964       -0.70002
H         -0.71846        2.14066        0.58874
H          1.19011        2.46702        2.06380
H          0.08690        3.84011        2.24221
H          1.57738        4.02024        1.30060
H          3.65926        2.09823       -0.61882
H          3.97028        0.43171       -0.07740
H          3.39973        1.63998        1.08688
H          1.95751       -0.41679       -2.02589
H          0.50688       -2.37254        3.11997
H          1.36341       -3.31053        1.82719
H          2.96942       -1.52075        1.57830
H          2.11506       -0.56090        2.85915
