46
936.log
C          1.37215        3.54741        0.02015
N          2.31143        2.44110       -0.12015
P          1.68844        0.89934        0.26448
C          1.90838        0.94032        2.08272
C          3.18204       -0.05161       -0.29090
O          3.39722       -0.24949       -1.45937
O          3.96425       -0.40926        0.70928
C          5.09457       -1.21028        0.37614
Rh        -0.10010       -0.04965       -0.76421
Cl         1.10881       -1.85689        0.33009
C         -2.03048       -2.58388        1.57179
N         -1.83087       -1.21279        2.04229
P         -1.66546        0.00179        0.88432
C         -1.83293        1.44542        2.00746
C         -3.40495        0.04908        0.23418
O         -4.29317       -0.73098        0.43879
O         -3.49804        1.13586       -0.52066
C         -4.75044        1.38813       -1.15077
C         -0.11582       -1.15902       -2.70288
C         -1.32476       -1.31069       -1.95225
H          1.07999        3.62560        1.06644
H          0.46638        3.41233       -0.58330
H          1.86461        4.47327       -0.27461
H          2.66073        2.41135       -1.07766
H          2.92871        1.25708        2.29220
H          1.73099       -0.05334        2.48822
H          1.20751        1.64774        2.52139
H          4.76114       -2.19918        0.05603
H          5.69403       -1.28458        1.27983
H          5.66249       -0.74492       -0.43173
H          0.83215       -0.17651       -1.98104
H         -0.69220        1.20246       -1.37256
H         -2.25036       -3.20951        2.43659
H         -1.15357       -2.98544        1.05736
H         -2.88864       -2.59696        0.90336
H         -1.01464       -1.18998        2.65323
H         -0.97718        1.48112        2.67873
H         -1.86300        2.35530        1.41171
H         -2.74501        1.33846        2.59325
H         -5.48166        1.72132       -0.41149
H         -5.12066        0.47955       -1.62934
H         -4.57322        2.16734       -1.88774
H         -0.16558       -0.60664       -3.63678
H          0.56235       -2.00785       -2.73820
H         -1.50310       -2.27669       -1.48637
H         -2.22469       -0.85320       -2.35470
