46
939.log
C         -0.59093       -1.39966       -2.96159
C         -0.94720        0.00454       -2.49313
P         -1.37865        0.11141       -0.69663
Br        -3.14686       -1.22014       -0.77558
C         -2.32284        1.73158       -0.73699
C         -2.50150        2.29703        0.64659
C         -3.61616        1.68775        1.44672
O         -1.78832        3.17346        1.07374
Rh        -0.07240       -0.46060        1.12664
Cl         0.28550       -2.61429        0.15186
C          3.76273       -1.90037        0.79615
C          3.51936       -0.43592        1.14353
P          1.97256        0.22609        0.36794
Br         2.60070        0.01348       -1.71915
C          2.31033        2.04131        0.58077
C          1.21215        2.76510       -0.15181
C          1.04161        4.22240        0.10534
O          0.49652        2.13651       -0.90182
C         -0.58725       -1.50885        3.04043
C          0.78749       -1.16593        2.94116
H         -1.45665       -2.05989       -2.93113
H         -0.22500       -1.35950       -3.98516
H          0.18945       -1.83714       -2.34292
H         -0.10871        0.68226       -2.65919
H         -1.81411        0.38357       -3.04827
H         -1.71904        2.41871       -1.33074
H         -3.28728        1.55767       -1.21832
H         -3.44661        0.61670        1.55710
H         -3.67041        2.14879        2.42947
H         -4.56325        1.81744        0.92690
H         -1.36751       -0.94810        1.75724
H         -0.29410        0.89979        1.76668
H          4.53165       -2.32064        1.44155
H          4.09231       -2.00168       -0.23656
H          2.85292       -2.48827        0.91134
H          3.40370       -0.31144        2.22419
H          4.36837        0.17650        0.81817
H          3.28210        2.32493        0.16222
H          2.30101        2.29650        1.64329
H          1.90504        4.66056        0.59516
H          0.81728        4.74673       -0.82090
H          0.16322        4.31822        0.74863
H         -1.20121       -0.97873        3.76199
H         -0.86198       -2.55008        2.90174
H          1.48685       -1.97900        2.77327
H          1.16117       -0.38661        3.60132
