40
942.log
C         -3.12117       -0.46006        1.74011
N         -3.01935       -0.85907        0.35485
Cl        -3.90939        0.27511       -0.64421
P         -1.42743       -0.98137       -0.29599
C         -0.93978       -2.48390        0.63088
C         -1.89849       -1.73678       -1.89747
Rh        -0.13898        0.90312       -0.23438
Cl         0.18297        0.39584        2.09189
C          3.48382        0.31080        1.26006
N          3.03787       -0.59254        0.21880
Cl         2.44588       -2.06797        0.94780
P          1.85475        0.00535       -0.87451
C          2.97711        1.10722       -1.82123
C          1.85990       -1.41084       -2.03548
C         -0.63397        2.99426        0.39328
C          0.74075        2.80982        0.05399
H         -2.73159        0.54579        1.93210
H         -4.16833       -0.50354        2.04212
H         -2.54383       -1.16628        2.33442
H         -0.52656       -2.20571        1.59827
H         -0.17559       -3.01856        0.07050
H         -1.81943       -3.11442        0.75666
H         -2.69866       -2.45564       -1.72697
H         -2.23181       -0.96774       -2.59031
H         -1.03299       -2.23685       -2.32597
H         -1.41086        1.66429        0.14995
H         -0.40702        1.20630       -1.69847
H          2.69334        0.55483        1.97570
H          3.83345        1.22511        0.78218
H          4.31665       -0.15559        1.78838
H          3.91029        0.58177       -2.01842
H          3.17935        2.03053       -1.28477
H          2.48045        1.35552       -2.75709
H          1.39301       -1.08095       -2.96223
H          1.29480       -2.24815       -1.63337
H          2.88815       -1.71940       -2.21864
H         -1.24351        3.60739       -0.26412
H         -0.87789        3.10781        1.44620
H          1.45520        2.82113        0.87309
H          1.09817        3.29950       -0.84799
