50
943.log
C          3.67387        1.62022       -1.99062
O          3.14464        2.79852       -1.40206
C          3.22936        2.83618       -0.02770
O          2.31859        1.91460        0.57851
C          2.79458        0.76879        1.07455
O          3.95338        0.49332        1.21497
P          1.36017       -0.34587        1.41822
C          0.33972        0.73689        2.48371
C          2.13062       -1.42840        2.67519
Rh         0.45155       -1.41556       -0.38819
Cl        -1.32361       -1.85027        1.17828
C         -5.08549        2.25624        0.24734
O         -4.25832        2.16752        1.39368
C         -3.50550        1.01758        1.47772
O         -2.37240        1.03509        0.60233
C         -2.44145        0.34727       -0.53187
O         -3.41506       -0.17346       -0.99846
P         -0.75622        0.29150       -1.30255
C         -0.28082        2.05917       -1.22365
C         -1.26844        0.15790       -3.05731
C          0.41961       -3.59631       -0.89082
C         -0.39638       -2.79432       -1.74805
H          3.65266        1.78614       -3.06507
H          3.06591        0.74338       -1.74241
H          4.70270        1.44902       -1.65960
H          2.91658        3.83729        0.28125
H          4.24449        2.60600        0.33423
H         -0.40250        0.09288        2.95447
H         -0.17777        1.48675        1.89068
H          0.96342        1.21235        3.24087
H          2.97318       -1.95098        2.22277
H          2.48098       -0.83793        3.52179
H          1.38615       -2.15189        3.00677
H          1.17087       -2.67973        0.10080
H          1.61100       -1.13394       -1.32704
H         -5.70601        3.13783        0.39177
H         -5.71543        1.36668        0.15156
H         -4.49549        2.37059       -0.66718
H         -3.09505        0.97766        2.49004
H         -4.09233        0.11324        1.25601
H         -0.08791        2.35302       -0.19518
H         -1.07379        2.67853       -1.64336
H          0.63512        2.19601       -1.79746
H         -1.90977       -0.71466       -3.17083
H         -1.81948        1.04967       -3.35561
H         -0.38487        0.04366       -3.68277
H          1.30101       -4.06315       -1.32158
H         -0.08858       -4.21372       -0.15511
H         -1.47318       -2.86602       -1.61597
H         -0.08414       -2.69010       -2.78388
