48
944.log
C          4.76992        0.98703        0.08893
C          3.87332        0.82409       -1.10143
O          4.26526        0.78558       -2.23930
C          2.38266        0.74760       -0.79844
O          2.08453        0.54275        0.56618
P          1.26019       -0.78280        1.04724
C          1.08643       -0.28563        2.79237
C          2.62437       -2.01738        1.20497
Rh        -0.53859       -1.53166       -0.14492
Cl        -2.00422       -0.76642        1.59945
C         -2.35702        3.98474       -0.04592
C         -1.34419        3.51506        0.95768
O         -1.05741        4.13246        1.95249
C         -0.70590        2.16715        0.68482
O         -0.67622        1.82120       -0.69259
P         -1.15577        0.37151       -1.24881
C         -0.66716        0.67436       -2.98540
C         -2.97412        0.61488       -1.40343
C         -1.55246       -3.52445       -0.08291
C         -2.14787       -2.60358       -1.00015
H          4.38734        1.77530        0.73238
H          4.76855        0.06183        0.66142
H          5.78278        1.21148       -0.23317
H          1.93156       -0.03598       -1.42150
H          1.94732        1.70800       -1.10773
H          2.02772        0.14002        3.13539
H          0.83512       -1.17173        3.37191
H          0.28464        0.43821        2.90829
H          3.42326       -1.61313        1.82492
H          3.00970       -2.25974        0.21570
H          2.23659       -2.92662        1.65740
H         -0.32196       -2.86208        0.59516
H          0.36954       -1.98540       -1.27384
H         -3.20952        3.30882       -0.02415
H         -1.92433        3.96067       -1.04300
H         -2.68528        4.99078        0.19951
H          0.31666        2.18446        1.07717
H         -1.27654        1.41936        1.26109
H          0.41336        0.66384       -3.09344
H         -1.05286        1.64002       -3.30519
H         -1.08890       -0.11651       -3.60077
H         -3.16472        1.59594       -1.83528
H         -3.43256        0.54052       -0.41875
H         -3.38942       -0.15592       -2.04697
H         -1.03124       -4.38516       -0.49139
H         -2.10133       -3.74170        0.82915
H         -3.11632       -2.20082       -0.71941
H         -2.05422       -2.82055       -2.06124
