42
950.log
C          4.10947       -0.93509        0.31646
O          4.22476        0.46996        0.31949
C          3.27508        1.10363       -0.47830
P          1.52717        0.91154        0.17118
C          1.79420        1.11880        1.97399
C          0.88942        2.59260       -0.22894
O          1.44419        3.38594       -0.93580
Rh         0.12342       -0.70044       -0.65696
Cl         0.51117       -2.03431        1.30383
C         -3.11040        3.30111       -0.81018
O         -2.43775        2.29584       -0.08843
C         -3.02550        1.02441       -0.21592
P         -1.75487       -0.11181        0.48787
C         -1.69949        0.46816        2.22561
C         -2.81008       -1.59448        0.78499
O         -3.89817       -1.74375        0.30258
C          0.50077       -2.47704       -1.95385
C         -0.87092       -2.33499       -1.56760
H          4.90027       -1.31401        0.96032
H          3.13556       -1.25288        0.71006
H          4.23592       -1.33669       -0.69639
H          3.51066        2.17431       -0.46826
H          3.30335        0.74104       -1.51932
H          1.73136        0.13913        2.44746
H          2.78648        1.54072        2.13331
H          1.03166        1.77464        2.39107
H         -0.10972        2.79039        0.20998
H          1.31612       -1.30292       -1.40988
H         -0.18624        0.17448       -1.85729
H         -2.56462        4.22738       -0.64055
H         -3.12039        3.07536       -1.88211
H         -4.14295        3.41266       -0.45927
H         -3.20636        0.76465       -1.26889
H         -3.97877        0.95798        0.33251
H         -2.69329        0.39527        2.66854
H         -0.99690       -0.15547        2.77627
H         -1.37083        1.50554        2.23661
H         -2.35381       -2.34232        1.46161
H          0.74652       -2.32664       -3.00156
H          1.06424       -3.28021       -1.48529
H         -1.25509       -3.05570       -0.85094
H         -1.59101       -2.06629       -2.33578
