46
976.log
C         -1.34018        3.39651       -2.19109
C         -1.50788        2.58335       -0.91570
N         -1.79143        1.19301       -1.24824
P         -1.58009       -0.05908       -0.16127
C         -2.04277       -1.44611       -1.25571
C         -3.08483       -0.05172        0.95542
Br        -4.73910        0.27220       -0.01571
Rh         0.30572       -0.18872        1.11164
Cl         0.00869       -2.57723        1.10790
C          2.15463       -3.83304       -2.65129
C          1.35996       -2.69113       -2.03278
N          2.25244       -1.88432       -1.20046
P          1.76719       -0.37630       -0.61779
C          1.43132        0.51610       -2.17775
C          3.49730        0.21508       -0.31671
Br         3.47119        2.08472        0.14136
C          0.63907       -0.33929        3.31710
C          1.84035       -0.41108        2.54348
H         -2.26824        3.40939       -2.75926
H         -1.07102        4.41946       -1.94416
H         -0.55874        2.96995       -2.81417
H         -0.58434        2.59556       -0.33111
H         -2.30568        3.02656       -0.30565
H         -2.65326        1.11091       -1.78518
H         -1.34541       -1.48542       -2.09068
H         -3.05715       -1.31988       -1.63524
H         -1.96869       -2.37439       -0.69132
H         -3.18239       -1.01477        1.45788
H         -2.99932        0.74558        1.69629
H         -0.57217       -0.10888        2.37070
H          0.48402        1.31030        1.14484
H          1.51858       -4.40902       -3.31787
H          2.99865       -3.44494       -3.21656
H          2.53106       -4.49514       -1.87513
H          0.52725       -3.09634       -1.44841
H          0.96185       -2.04870       -2.82144
H          2.52781       -2.45599       -0.40062
H          1.53205        1.58465       -1.98975
H          2.14023        0.19813       -2.94272
H          0.40819        0.32944       -2.50041
H          4.09421        0.09839       -1.22263
H          3.96566       -0.31742        0.51128
H          0.48827        0.54060        3.93568
H          0.28381       -1.25970        3.77249
H          2.32997       -1.38173        2.49109
H          2.53127        0.42420        2.63314
