50
979.log
C         -3.32792       -2.07366       -1.29356
C         -3.34664       -0.69140       -0.65812
P         -1.66759        0.08530       -0.58122
N         -1.44315        0.43176       -2.20570
C         -2.14450        1.79154       -0.03612
N         -2.03497        1.94780        1.39841
C         -2.64191        3.17347        1.87977
Rh        -0.03918       -0.99647        0.60898
Cl         0.96646       -1.71651       -1.46866
C          3.86803       -0.09109        0.00878
C          3.09316        0.56610        1.14377
P          1.30912        0.83632        0.74908
N          0.90968        1.85783        2.01597
C          1.50418        2.00772       -0.70110
N          1.26976        1.39246       -1.98704
C          1.84751        2.13128       -3.08872
C          0.17562       -3.10277        1.31910
C          1.28257       -2.25717        1.66273
H         -2.60092       -2.71586       -0.79605
H         -3.05983       -2.00913       -2.34582
H         -4.30693       -2.54401       -1.21837
H         -3.72725       -0.75471        0.36609
H         -3.98666       -0.01955       -1.23720
H         -0.54435        0.93490       -2.29930
H         -1.31685       -0.44195       -2.71476
H         -1.46061        2.49577       -0.52325
H         -3.16046        2.00042       -0.41760
H         -2.46172        1.14572        1.85641
H         -2.11305        4.02143        1.44148
H         -3.70618        3.26411        1.61794
H         -2.54214        3.22119        2.96293
H         -0.86621       -2.29125        0.59383
H         -0.69031       -0.60010        1.91203
H          3.31987       -0.94532       -0.38370
H          4.84130       -0.43355        0.35631
H          4.03040        0.60630       -0.81102
H          3.52902        1.53632        1.40819
H          3.11162       -0.06138        2.03798
H         -0.10513        1.96401        2.07237
H          1.37024        2.76250        1.98954
H          0.78062        2.82754       -0.56766
H          2.51543        2.45365       -0.62111
H          1.60810        0.42838       -1.98233
H          2.93242        2.28706       -2.98776
H          1.65928        1.59078       -4.01420
H          1.36915        3.11175       -3.15136
H         -0.45839       -3.45854        2.12730
H          0.34688       -3.85130        0.54915
H          2.21613       -2.44418        1.14031
H          1.41708       -2.01633        2.71414
