42
992.log
C          2.01352        4.11695       -0.07642
C          1.86325        2.69437       -0.59521
C          2.36955        1.68608        0.43665
P          1.99241       -0.01428       -0.13102
C          3.24119       -0.14847       -1.39008
N          4.03064       -0.23066       -2.21485
N          2.96491       -0.98835        1.08269
O          2.89117       -2.18005        0.93664
O          3.61835       -0.38407        1.88792
Rh         0.06009       -1.10856       -0.55276
Cl        -0.29418       -1.09978        1.88293
C         -5.55066       -0.19524        0.68189
C         -4.18787       -0.33846        0.01270
C         -3.10795        0.28408        0.89550
P         -1.42220        0.46943        0.15454
C         -0.82141        1.68239        1.30882
N         -0.42952        2.42830        2.08428
N         -1.94965        1.69022       -1.10380
O         -2.52711        1.18963       -2.04307
O         -1.69153        2.86242       -0.95710
C         -0.32908       -3.28804       -0.90534
C         -1.51375       -2.51521       -0.83575
H          1.65744        4.82519       -0.81899
H          3.05523        4.33724        0.14462
H          1.42679        4.24644        0.82971
H          0.80581        2.50572       -0.80950
H          2.41648        2.57121       -1.53073
H          3.45199        1.77531        0.58145
H          1.87878        1.84588        1.40249
H          0.98573       -2.29248       -0.80712
H          0.10774       -0.82488       -2.03588
H         -5.80472        0.85339        0.81975
H         -6.31903       -0.65395        0.06536
H         -5.55516       -0.68102        1.65543
H         -4.21308        0.14863       -0.96448
H         -3.97888       -1.39543       -0.15146
H         -3.40752        1.29958        1.18903
H         -2.97097       -0.30294        1.80914
H         -0.03327       -3.69718       -1.86559
H         -0.06560       -3.90774       -0.05271
H         -2.11098       -2.61241        0.06731
H         -2.08503       -2.35719       -1.74593
