40
993.log
C          4.35905        0.74229        0.24593
C          3.00779        0.27375        0.78195
C          2.42162        1.28145        1.76055
P          1.80865       -0.06223       -0.60507
O          2.70223       -0.83502       -1.69524
C          1.77681        1.57240       -1.34505
N          1.76541        2.56986       -1.90726
Rh        -0.17943       -1.12136       -0.35496
Cl         0.12850       -1.38891        2.03634
C         -3.58635        2.45466        0.10135
C         -2.83863        1.43420       -0.74852
C         -3.76829        0.35198       -1.28047
P         -1.46859        0.66861        0.23603
O         -2.16528        0.43633        1.64168
C         -0.58793        2.20941        0.52448
N         -0.01412        3.18112        0.72128
C         -0.69937       -3.28848       -0.43994
C         -1.82663       -2.44114       -0.21580
H          4.24012        1.61521       -0.39693
H          4.99366        1.02928        1.08246
H          4.87816       -0.04487       -0.30060
H          3.12694       -0.69170        1.29198
H          1.46213        0.93453        2.14031
H          3.09267        1.40972        2.60771
H          2.27378        2.24867        1.28357
H          3.52506       -0.39333       -1.93896
H          0.59641       -2.41333       -0.63139
H         -0.42131       -0.93238       -1.83835
H         -4.05652        1.96619        0.95203
H         -2.91135        3.22303        0.47390
H         -4.36127        2.93528       -0.49314
H         -2.34557        1.93794       -1.58963
H         -4.59293        0.80201       -1.83021
H         -3.22992       -0.31399       -1.95212
H         -4.18042       -0.22895       -0.45656
H         -1.61077       -0.21360        2.13831
H         -0.63167       -3.80507       -1.39246
H         -0.33493       -3.87258        0.40070
H         -2.26708       -2.45377        0.77785
H         -2.55919       -2.37163       -1.01400
